 
  Mrv0541 11231401232D          

 35 37  0  0  0  0            999 V2000
   10.8107  -10.2518    0.0000 O   0  0  0  0  0  0  0  0  0  0  0  0
   14.4842  -11.9233    0.0000 O   0  0  0  0  0  0  0  0  0  0  0  0
    6.8552  -11.0596    0.0000 O   0  0  0  0  0  0  0  0  0  0  0  0
   16.4757  -15.4395    0.0000 O   0  0  0  0  0  0  0  0  0  0  0  0
   12.4337  -10.8277    0.0000 N   0  0  0  0  0  0  0  0  0  0  0  0
    8.5051  -10.5709    0.0000 N   0  0  0  0  0  0  0  0  0  0  0  0
   10.3691  -11.6095    0.0000 N   0  0  0  0  0  0  0  0  0  0  0  0
   13.3300  -12.7627    0.0000 N   0  0  0  0  0  0  0  0  0  0  0  0
   15.4609  -13.3435    0.0000 N   0  0  0  0  0  0  0  0  0  0  0  0
    7.2926  -12.4173    0.0000 N   0  0  0  0  0  0  0  0  0  0  0  0
   15.0461  -15.4395    0.0000 N   0  0  0  0  0  0  0  0  0  0  0  0
    5.3834  -14.5404    0.0000 N   0  0  0  0  0  0  0  0  0  0  0  0
   11.7653  -11.3133    0.0000 C   0  0  0  0  0  0  0  0  0  0  0  0
    9.5841  -11.3559    0.0000 C   0  0  0  0  0  0  0  0  0  0  0  0
   12.8444  -12.0982    0.0000 C   0  0  0  0  0  0  0  0  0  0  0  0
    8.2514  -11.3559    0.0000 C   0  0  0  0  0  0  0  0  0  0  0  0
   12.0231  -12.0982    0.0000 C   0  0  0  0  0  0  0  0  0  0  0  0
   13.1022  -11.3133    0.0000 C   0  0  0  0  0  0  0  0  0  0  0  0
    8.9199  -11.8414    0.0000 C   0  0  0  0  0  0  0  0  0  0  0  0
    9.3305  -10.5709    0.0000 C   0  0  0  0  0  0  0  0  0  0  0  0
   10.9803  -11.0596    0.0000 C   0  0  0  0  0  0  0  0  0  0  0  0
   14.6355  -13.3435    0.0000 C   0  0  0  0  0  0  0  0  0  0  0  0
   14.1498  -12.6792    0.0000 C   0  0  0  0  0  0  0  0  0  0  0  0
    7.4663  -11.6095    0.0000 C   0  0  0  0  0  0  0  0  0  0  0  0
   12.4337  -10.0024    0.0000 C   0  0  0  0  0  0  0  0  0  0  0  0
    8.0195   -9.9024    0.0000 C   0  0  0  0  0  0  0  0  0  0  0  0
   14.3818  -14.1285    0.0000 C   0  0  0  0  0  0  0  0  0  0  0  0
   15.0461  -14.6141    0.0000 C   0  0  0  0  0  0  0  0  0  0  0  0
   15.7145  -14.1285    0.0000 C   0  0  0  0  0  0  0  0  0  0  0  0
    6.5119  -12.6710    0.0000 C   0  0  0  0  0  0  0  0  0  0  0  0
   15.9464  -12.6792    0.0000 C   0  0  0  0  0  0  0  0  0  0  0  0
    6.3381  -13.4788    0.0000 C   0  0  0  0  0  0  0  0  0  0  0  0
    5.5530  -13.7325    0.0000 C   0  0  0  0  0  0  0  0  0  0  0  0
   15.7630  -15.8501    0.0000 C   0  0  0  0  0  0  0  0  0  0  0  0
    4.9398  -13.1806    0.0000 N   0  0  0  0  0  0  0  0  0  0  0  0
  1 21  2  0  0  0  0
  2 23  2  0  0  0  0
  3 24  2  0  0  0  0
  4 34  2  0  0  0  0
  5 13  1  0  0  0  0
  5 18  1  0  0  0  0
  5 25  1  0  0  0  0
  6 16  1  0  0  0  0
  6 20  1  0  0  0  0
  6 26  1  0  0  0  0
  7 14  1  0  0  0  0
  7 21  1  0  0  0  0
  8 15  1  0  0  0  0
  8 23  1  0  0  0  0
  9 22  1  0  0  0  0
  9 29  1  0  0  0  0
  9 31  1  0  0  0  0
 10 24  1  0  0  0  0
 10 30  1  0  0  0  0
 11 28  1  0  0  0  0
 11 34  1  0  0  0  0
 12 33  1  0  0  0  0
 35 33  2  0  0  0  0
 13 17  2  0  0  0  0
 13 21  1  0  0  0  0
 14 19  1  0  0  0  0
 14 20  2  0  0  0  0
 15 17  1  0  0  0  0
 15 18  2  0  0  0  0
 16 19  2  0  0  0  0
 16 24  1  0  0  0  0
 22 23  1  0  0  0  0
 22 27  2  0  0  0  0
 27 28  1  0  0  0  0
 28 29  2  0  0  0  0
 30 32  1  0  0  0  0
 32 33  1  0  0  0  0
M  END
> <From>
www.bindingDB.org

> <BindingDB Reactant_set_id>
95176

> <Ligand InChI>
InChI=1S/C22H27N9O4/c1-29-9-13(26-12-32)6-17(29)21(34)28-15-8-18(31(3)11-15)22(35)27-14-7-16(30(2)10-14)20(33)25-5-4-19(23)24/h6-12H,4-5H2,1-3H3,(H3,23,24)(H,25,33)(H,26,32)(H,27,35)(H,28,34)

> <Ligand InChI Key>
UPBAOYRENQEPJO-UHFFFAOYSA-N

> <BindingDB MonomerID>
50055659

> <BindingDB Ligand Name>
2N-(3,3-aminoiminopropyl)-4-[4-(4-formamido-1-methyl-1H-2-pyrrolylcarboxamido)-1-methyl-1H-2-pyrrolylcarboxamido]-1-methyl-1H-2-pyrrolecarboxamide::2N-[5-(3-amino-3-iminopropylcarbamoyl)-1-methyl-1H-3-pyrrolyl]-4-(4-formamido-1-methyl-1H-2-pyrrolylcarboxamido)-1-methyl-1H-2-pyrrolecarboxamide::2N-[5-(3-amino-3-iminopropylcarbamoyl)-1-methyl-1H-3-pyrrolyl]-4-(4-formamido-1-methyl-1H-2-pyrrolylcarboxamido)-1-methyl-1H-2-pyrrolecarboxamide(Distamycin)::2N-[5-(3-amino-3-iminopropylcarbamoyl)-1-methyl-1H-3-pyrrolyl]-4-(4-formamido-1-methyl-1H-2-pyrrolylcarboxamido)-1-methyl-1H-2-pyrrolecarboxamide(distamycin A)::4N-[5-(3-amino-3-iminopropylcarbamoyl)-1-methyl-1H-2-pyrrolyl]-2-(4-formamido-1-methyl-1H-2-pyrrolylcarboxamido)-1-methyl-1H-4-pyrrolecarboxamide::5N-[5-(3-amino-3-iminopropylcarbamoyl)-1-methyl-2,3-dihydro-1H-3-pyrrolyl]-3-(4-formamido-1-methyl-1H-2-pyrrolylcarboxamido)-1-methyl-2,3-dihydro-1H-5-pyrrolecarboxamide::CHEMBL101290::CHEMBL11252::DISTAMYCIN::DISTAMYCIN HYDROCHLORIDE::cid_6602691

> <Target Name>
DNA repair protein RAD51 homolog 1

> <Target Source Organism According to Curator or DataSource>
Homo sapiens

> <Ki (nM)>


> <IC50 (nM)>
 46960

> <Kd (nM)>


> <EC50 (nM)>


> <kon (M-1-s-1)>


> <koff (s-1)>


> <pH>


> <Temp C>


> <Curation/DataSource>
PubChem

> <Article DOI>


> <BindingDB Entry DOI>
10.7270/Q2VD6WW6

> <PMID>


> <PubChem AID>
aid1436

> <Patent Number>


> <Authors>
PubChem, PC

> <Date of publication>
11/25/2008

> <Date in BindingDB>
5/31/2011

> <Institution>
PCMD

> <Link to Ligand in BindingDB>
http://www.bindingdb.org/bind/chemsearch/marvin/MolStructure.jsp?monomerid=50055659

> <Link to Ligand-Target Pair in BindingDB>
http://www.bindingdb.org/jsp/dbsearch/PrimarySearch_ki.jsp?energyterm=kJ/mole&tag=pol&polymerid=4676&target=DNA+repair+protein+RAD51+homolog+1&column=ki&startPg=0&Increment=50&submit=Search

> <Link to Ligand-Target Pair in BindingDB>
http://www.bindingdb.org/jsp/dbsearch/PrimarySearch_ki.jsp?energyterm=kJ/mole&tag=r21&monomerid=50055659&enzyme=DNA+repair+protein+RAD51+homolog+1&column=ki&startPg=0&Increment=50&submit=Search

> <Ligand HET ID in PDB>
DMY

> <PDB ID(s) for Ligand-Target Complex>
217D,1JTL,159D,1K2Z,304D,1JUX,305D,306D,2DND,2JT7,267D,378D,216D

> <PubChem CID of Ligand>
3115

> <PubChem SID of Ligand>
103952142

> <ChEBI ID of Ligand>


> <ChEMBL ID of Ligand>
CHEMBL101290
CHEMBL11252

> <DrugBank ID of Ligand>


> <IUPHAR_GRAC ID of Ligand>


> <KEGG ID of Ligand>
C06049

> <ZINC ID of Ligand>
ZINC03872327

> <Number of Protein Chains in Target (bigger than 1 implies a multichain complex)>
1

> <BindingDB Target Chain Sequence>
MAMQMQLEANADTSVEEESFGPQPISRLEQCGINANDVKKLEEAGFHTVEAVAYAPKKELINIKGISEAKADKILAEAAKLVPMGFTTATEFHQRRSEIIQITTGSKELDKLLQGGIETGSITEMFGEFRTGKTQICHTLAVTCQLPIDRGGGEGKAMYIDTEGTFRPERLLAVAERYGLSGSDVLDNVAYARAFNTDHQTQLLYQASAMMVESRYALLIVDSATALYRTDYSGRGELSARQMHLARFLRMLLRLADEFGVAVVITNQVVAQVDGAAMFAADPKKPIGGNIIAHASTTRLYLRKGRGETRICKIYDSPCLPEAEAMFAINADGVGDAKD

> <PDB ID(s) of Target Chain>
1N0W,5JZC,5NP7,5NWL,8BQ2,8BR2,8BSC

> <UniProt (SwissProt) Recommended Name of Target Chain>
DNA repair protein RAD51 homolog 1

> <UniProt (SwissProt) Entry Name of Target Chain>
RAD51_HUMAN

> <UniProt (SwissProt) Primary ID of Target Chain>
Q06609

> <UniProt (SwissProt) Secondary ID(s) of Target Chain>
B0FXP0 B2R8T6 Q6FHX9 Q6ZNA8 Q9BV60

> <UniProt (SwissProt) Alternative ID(s) of Target Chain>


> <UniProt (TrEMBL) Submitted Name of Target Chain>


> <UniProt (TrEMBL) Entry Name of Target Chain>


> <UniProt (TrEMBL) Primary ID of Target Chain>


> <UniProt (TrEMBL) Secondary ID(s) of Target Chain>


> <UniProt (TrEMBL) Alternative ID(s) of Target Chain>


$$$$
2948211
  -OEChem-09261420222D

 45 48  0     1  0  0  0  0  0999 V2000
    9.4294   -1.0192    0.0000 O   0  0  0  0  0  0  0  0  0  0  0  0
    7.7039   -1.1702    0.0000 O   0  0  0  0  0  0  0  0  0  0  0  0
    5.1623    0.2817    0.0000 N   0  0  0  0  0  0  0  0  0  0  0  0
    6.1970   -1.5104    0.0000 N   0  0  0  0  0  0  0  0  0  0  0  0
    7.9581    2.3481    0.0000 C   0  0  0  0  0  0  0  0  0  0  0  0
    8.6947    1.3655    0.0000 C   0  0  3  0  0  0  0  0  0  0  0  0
    8.4359    0.3996    0.0000 C   0  0  3  0  0  0  0  0  0  0  0  0
   10.5267    0.6067    0.0000 C   0  0  0  0  0  0  0  0  0  0  0  0
   10.2678   -0.3592    0.0000 C   0  0  0  0  0  0  0  0  0  0  0  0
    6.2038    0.2656    0.0000 C   0  0  0  0  0  0  0  0  0  0  0  0
    6.7038   -0.6004    0.0000 C   0  0  0  0  0  0  0  0  0  0  0  0
    8.0626    3.3426    0.0000 C   0  0  0  0  0  0  0  0  0  0  0  0
    7.0446    2.7549    0.0000 C   0  0  0  0  0  0  0  0  0  0  0  0
    8.9535    2.3314    0.0000 C   0  0  0  0  0  0  0  0  0  0  0  0
    8.5231   -0.5966    0.0000 C   0  0  0  0  0  0  0  0  0  0  0  0
    4.6346   -0.6164    0.0000 C   0  0  0  0  0  0  0  0  0  0  0  0
    5.1554   -1.5184    0.0000 C   0  0  0  0  0  0  0  0  0  0  0  0
    3.5497   -0.5996    0.0000 C   0  0  0  0  0  0  0  0  0  0  0  0
    4.6274   -2.4663    0.0000 C   0  0  0  0  0  0  0  0  0  0  0  0
    3.0000   -1.5351    0.0000 C   0  0  0  0  0  0  0  0  0  0  0  0
    3.5425   -2.4747    0.0000 C   0  0  0  0  0  0  0  0  0  0  0  0
    2.0000   -1.5312    0.0000 C   0  0  0  0  0  0  0  0  0  0  0  0
    3.0458   -3.3426    0.0000 C   0  0  0  0  0  0  0  0  0  0  0  0
   11.1180    0.4203    0.0000 H   0  0  0  0  0  0  0  0  0  0  0  0
   10.7387    1.1893    0.0000 H   0  0  0  0  0  0  0  0  0  0  0  0
   10.0558   -0.9418    0.0000 H   0  0  0  0  0  0  0  0  0  0  0  0
   10.8592   -0.5457    0.0000 H   0  0  0  0  0  0  0  0  0  0  0  0
    8.6792    3.2778    0.0000 H   0  0  0  0  0  0  0  0  0  0  0  0
    8.1274    3.9592    0.0000 H   0  0  0  0  0  0  0  0  0  0  0  0
    7.4460    3.4074    0.0000 H   0  0  0  0  0  0  0  0  0  0  0  0
    7.2967    3.3213    0.0000 H   0  0  0  0  0  0  0  0  0  0  0  0
    6.4782    3.0070    0.0000 H   0  0  0  0  0  0  0  0  0  0  0  0
    6.7924    2.1885    0.0000 H   0  0  0  0  0  0  0  0  0  0  0  0
    9.5524    2.1710    0.0000 H   0  0  0  0  0  0  0  0  0  0  0  0
    9.1140    2.9303    0.0000 H   0  0  0  0  0  0  0  0  0  0  0  0
    8.3547    2.4919    0.0000 H   0  0  0  0  0  0  0  0  0  0  0  0
    9.4834   -1.6369    0.0000 H   0  0  0  0  0  0  0  0  0  0  0  0
    3.2460   -0.0592    0.0000 H   0  0  0  0  0  0  0  0  0  0  0  0
    4.9436   -2.9996    0.0000 H   0  0  0  0  0  0  0  0  0  0  0  0
    2.0024   -0.9112    0.0000 H   0  0  0  0  0  0  0  0  0  0  0  0
    1.3800   -1.5288    0.0000 H   0  0  0  0  0  0  0  0  0  0  0  0
    1.9976   -2.1512    0.0000 H   0  0  0  0  0  0  0  0  0  0  0  0
    2.5077   -3.0347    0.0000 H   0  0  0  0  0  0  0  0  0  0  0  0
    2.7379   -3.8808    0.0000 H   0  0  0  0  0  0  0  0  0  0  0  0
    3.5840   -3.6506    0.0000 H   0  0  0  0  0  0  0  0  0  0  0  0
  1 15  1  0  0  0  0
  1 37  1  0  0  0  0
  2 15  2  0  0  0  0
  3 10  2  0  0  0  0
  3 16  1  0  0  0  0
  4 11  2  0  0  0  0
  4 17  1  0  0  0  0
  5  6  1  0  0  0  0
  5  7  1  0  0  0  0
  5 12  1  0  0  0  0
  5 13  1  0  0  0  0
  6  8  1  0  0  0  0
  6 10  1  0  0  0  0
  6 14  1  0  0  0  0
  7  9  1  0  0  0  0
  7 11  1  0  0  0  0
  7 15  1  0  0  0  0
  8  9  1  0  0  0  0
  8 24  1  0  0  0  0
  8 25  1  0  0  0  0
  9 26  1  0  0  0  0
  9 27  1  0  0  0  0
 10 11  1  0  0  0  0
 12 28  1  0  0  0  0
 12 29  1  0  0  0  0
 12 30  1  0  0  0  0
 13 31  1  0  0  0  0
 13 32  1  0  0  0  0
 13 33  1  0  0  0  0
 14 34  1  0  0  0  0
 14 35  1  0  0  0  0
 14 36  1  0  0  0  0
 16 17  2  0  0  0  0
 16 18  1  0  0  0  0
 17 19  1  0  0  0  0
 18 20  2  0  0  0  0
 18 38  1  0  0  0  0
 19 21  2  0  0  0  0
 19 39  1  0  0  0  0
 20 21  1  0  0  0  0
 20 22  1  0  0  0  0
 21 23  1  0  0  0  0
 22 40  1  0  0  0  0
 22 41  1  0  0  0  0
 22 42  1  0  0  0  0
 23 43  1  0  0  0  0
 23 44  1  0  0  0  0
 23 45  1  0  0  0  0
M  END
> <From>
www.bindingDB.org

> <BindingDB Reactant_set_id>
95177

> <Ligand InChI>
InChI=1S/C19H22N2O2/c1-10-8-12-13(9-11(10)2)21-15-14(20-12)18(5)6-7-19(15,16(22)23)17(18,3)4/h8-9H,6-7H2,1-5H3,(H,22,23)

> <Ligand InChI Key>
OVYNUABZJBLWSS-UHFFFAOYSA-N

> <BindingDB MonomerID>
51310

> <BindingDB Ligand Name>
6,7,12,15,15-pentamethyl-3,10-diazatetracyclo[10.2.1.0~2,11~.0~4,9~]pentadeca-2(11),3,5,7,9-pentaene-1-carboxylic acid::MLS000063296::SMR000074934::cid_2948211

> <Target Name>
DNA repair protein RAD51 homolog 1

> <Target Source Organism According to Curator or DataSource>
Homo sapiens

> <Ki (nM)>


> <IC50 (nM)>
 85000

> <Kd (nM)>


> <EC50 (nM)>


> <kon (M-1-s-1)>


> <koff (s-1)>


> <pH>


> <Temp C>


> <Curation/DataSource>
PubChem

> <Article DOI>


> <BindingDB Entry DOI>
10.7270/Q2VD6WW6

> <PMID>


> <PubChem AID>
aid1436

> <Patent Number>


> <Authors>
PubChem, PC

> <Date of publication>
11/25/2008

> <Date in BindingDB>
5/31/2011

> <Institution>
PCMD

> <Link to Ligand in BindingDB>
http://www.bindingdb.org/bind/chemsearch/marvin/MolStructure.jsp?monomerid=51310

> <Link to Ligand-Target Pair in BindingDB>
http://www.bindingdb.org/jsp/dbsearch/PrimarySearch_ki.jsp?energyterm=kJ/mole&tag=pol&polymerid=4676&target=DNA+repair+protein+RAD51+homolog+1&column=ki&startPg=0&Increment=50&submit=Search

> <Link to Ligand-Target Pair in BindingDB>
http://www.bindingdb.org/jsp/dbsearch/PrimarySearch_ki.jsp?energyterm=kJ/mole&tag=r21&monomerid=51310&enzyme=DNA+repair+protein+RAD51+homolog+1&column=ki&startPg=0&Increment=50&submit=Search

> <Ligand HET ID in PDB>


> <PDB ID(s) for Ligand-Target Complex>


> <PubChem CID of Ligand>
2948211

> <PubChem SID of Ligand>
242053178

> <ChEBI ID of Ligand>


> <ChEMBL ID of Ligand>


> <DrugBank ID of Ligand>


> <IUPHAR_GRAC ID of Ligand>


> <KEGG ID of Ligand>


> <ZINC ID of Ligand>
ZINC04400619

> <Number of Protein Chains in Target (bigger than 1 implies a multichain complex)>
1

> <BindingDB Target Chain Sequence>
MAMQMQLEANADTSVEEESFGPQPISRLEQCGINANDVKKLEEAGFHTVEAVAYAPKKELINIKGISEAKADKILAEAAKLVPMGFTTATEFHQRRSEIIQITTGSKELDKLLQGGIETGSITEMFGEFRTGKTQICHTLAVTCQLPIDRGGGEGKAMYIDTEGTFRPERLLAVAERYGLSGSDVLDNVAYARAFNTDHQTQLLYQASAMMVESRYALLIVDSATALYRTDYSGRGELSARQMHLARFLRMLLRLADEFGVAVVITNQVVAQVDGAAMFAADPKKPIGGNIIAHASTTRLYLRKGRGETRICKIYDSPCLPEAEAMFAINADGVGDAKD

> <PDB ID(s) of Target Chain>
1N0W,5JZC,5NP7,5NWL,8BQ2,8BR2,8BSC

> <UniProt (SwissProt) Recommended Name of Target Chain>
DNA repair protein RAD51 homolog 1

> <UniProt (SwissProt) Entry Name of Target Chain>
RAD51_HUMAN

> <UniProt (SwissProt) Primary ID of Target Chain>
Q06609

> <UniProt (SwissProt) Secondary ID(s) of Target Chain>
B0FXP0 B2R8T6 Q6FHX9 Q6ZNA8 Q9BV60

> <UniProt (SwissProt) Alternative ID(s) of Target Chain>


> <UniProt (TrEMBL) Submitted Name of Target Chain>


> <UniProt (TrEMBL) Entry Name of Target Chain>


> <UniProt (TrEMBL) Primary ID of Target Chain>


> <UniProt (TrEMBL) Secondary ID(s) of Target Chain>


> <UniProt (TrEMBL) Alternative ID(s) of Target Chain>


$$$$
9549472
  Mrv0541 11251415502D          

 31 35  0  0  0  0            999 V2000
    5.1023    6.8992    0.0000 N   0  3  0  0  0  0  0  0  0  0  0  0
    2.4800    5.3852    0.0000 N   0  0  0  0  0  0  0  0  0  0  0  0
    5.1023    8.2271    0.0000 C   0  0  0  0  0  0  0  0  0  0  0  0
    5.8830    7.9756    0.0000 C   0  0  0  0  0  0  0  0  0  0  0  0
    4.6208    7.5631    0.0000 C   0  0  0  0  0  0  0  0  0  0  0  0
    1.3301    6.0491    0.0000 C   0  0  0  0  0  0  0  0  0  0  0  0
    5.8830    7.1506    0.0000 C   0  0  0  0  0  0  0  0  0  0  0  0
    2.1458    6.1342    0.0000 C   0  0  0  0  0  0  0  0  0  0  0  0
    1.1575    5.2474    0.0000 C   0  0  0  0  0  0  0  0  0  0  0  0
    4.4341    8.7108    0.0000 C   0  0  0  0  0  0  0  0  0  0  0  0
    5.3559    9.0121    0.0000 C   0  0  0  0  0  0  0  0  0  0  0  0
    6.5974    8.3881    0.0000 C   0  0  0  0  0  0  0  0  0  0  0  0
    1.8720    4.8349    0.0000 C   0  0  0  0  0  0  0  0  0  0  0  0
    3.7958    7.5631    0.0000 C   0  0  0  0  0  0  0  0  0  0  0  0
    0.5234    6.2220    0.0000 C   0  0  0  0  0  0  0  0  0  0  0  0
    1.2453    6.8698    0.0000 C   0  0  0  0  0  0  0  0  0  0  0  0
    6.5974    6.7381    0.0000 C   0  0  0  0  0  0  0  0  0  0  0  0
    7.3120    7.9756    0.0000 C   0  0  0  0  0  0  0  0  0  0  0  0
    2.5583    6.8486    0.0000 C   0  0  0  0  0  0  0  0  0  0  0  0
    4.8460    6.1150    0.0000 C   0  0  0  0  0  0  0  0  0  0  0  0
    3.3833    6.8486    0.0000 C   0  0  0  0  0  0  0  0  0  0  0  0
    7.3120    7.1506    0.0000 C   0  0  0  0  0  0  0  0  0  0  0  0
    0.4430    4.8349    0.0000 C   0  0  0  0  0  0  0  0  0  0  0  0
    6.5842    9.2474    0.0000 C   0  0  0  0  0  0  0  0  0  0  0  0
    3.2873    5.2151    0.0000 C   0  0  0  0  0  0  0  0  0  0  0  0
    1.8720    4.0098    0.0000 C   0  0  0  0  0  0  0  0  0  0  0  0
    8.0627    8.3938    0.0000 C   0  0  0  0  0  0  0  0  0  0  0  0
    0.4430    4.0098    0.0000 C   0  0  0  0  0  0  0  0  0  0  0  0
    1.1575    3.5973    0.0000 C   0  0  0  0  0  0  0  0  0  0  0  0
    7.3251    9.6828    0.0000 C   0  0  0  0  0  0  0  0  0  0  0  0
    8.0693    9.2532    0.0000 C   0  0  0  0  0  0  0  0  0  0  0  0
  1  5  2  0  0  0  0
  1  7  1  0  0  0  0
  1 20  1  0  0  0  0
  2  8  1  0  0  0  0
  2 13  1  0  0  0  0
  2 25  1  0  0  0  0
  3  4  1  0  0  0  0
  3  5  1  0  0  0  0
  3 10  1  0  0  0  0
  3 11  1  0  0  0  0
  4  7  1  0  0  0  0
  4 12  2  0  0  0  0
  5 14  1  0  0  0  0
  6  8  1  0  0  0  0
  6  9  1  0  0  0  0
  6 15  1  0  0  0  0
  6 16  1  0  0  0  0
  7 17  2  0  0  0  0
  8 19  2  0  0  0  0
  9 13  2  0  0  0  0
  9 23  1  0  0  0  0
 12 18  1  0  0  0  0
 12 24  1  0  0  0  0
 13 26  1  0  0  0  0
 14 21  2  0  0  0  0
 17 22  1  0  0  0  0
 18 22  2  0  0  0  0
 18 27  1  0  0  0  0
 19 21  1  0  0  0  0
 23 28  2  0  0  0  0
 24 30  2  0  0  0  0
 26 29  2  0  0  0  0
 27 31  2  0  0  0  0
 28 29  1  0  0  0  0
 30 31  1  0  0  0  0
M  CHG  1   1   1
M  END
> <From>
www.bindingDB.org

> <BindingDB Reactant_set_id>
95178

> <Ligand InChI>
InChI=1S/C29H31N2/c1-28(2)22-14-9-10-15-23(22)30(5)25(28)16-11-17-26-29(3,4)27-21-13-8-7-12-20(21)18-19-24(27)31(26)6/h7-19H,1-6H3/q+1

> <Ligand InChI Key>
CAQVGTGTLHVPML-UHFFFAOYSA-N

> <BindingDB MonomerID>
44459

> <BindingDB Ligand Name>
1,1,3-Trimethyl-2-[3-(1,3,3-trimethyl-1,3-dihydro-indol-2-ylidene)-propenyl]-1H-benzo[e]indolium::1,1,3-trimethyl-2-[(E,3Z)-3-(1,3,3-trimethyl-2-indolylidene)prop-1-enyl]benzo[e]indol-3-ium;perchlorate::1,1,3-trimethyl-2-[(E,3Z)-3-(1,3,3-trimethylindol-2-ylidene)prop-1-enyl]benzo[e]indol-3-ium;perchlorate::1,1,3-trimethyl-2-[(E,3Z)-3-(1,3,3-trimethylindolin-2-ylidene)prop-1-enyl]benz[e]indol-3-ium;perchlorate::MLS000525274::SMR000122148::cid_9549472

> <Target Name>
DNA repair protein RAD51 homolog 1

> <Target Source Organism According to Curator or DataSource>
Homo sapiens

> <Ki (nM)>


> <IC50 (nM)>
 85000

> <Kd (nM)>


> <EC50 (nM)>


> <kon (M-1-s-1)>


> <koff (s-1)>


> <pH>


> <Temp C>


> <Curation/DataSource>
PubChem

> <Article DOI>


> <BindingDB Entry DOI>
10.7270/Q2VD6WW6

> <PMID>


> <PubChem AID>
aid1436

> <Patent Number>


> <Authors>
PubChem, PC

> <Date of publication>
11/25/2008

> <Date in BindingDB>
5/31/2011

> <Institution>
PCMD

> <Link to Ligand in BindingDB>
http://www.bindingdb.org/bind/chemsearch/marvin/MolStructure.jsp?monomerid=44459

> <Link to Ligand-Target Pair in BindingDB>
http://www.bindingdb.org/jsp/dbsearch/PrimarySearch_ki.jsp?energyterm=kJ/mole&tag=pol&polymerid=4676&target=DNA+repair+protein+RAD51+homolog+1&column=ki&startPg=0&Increment=50&submit=Search

> <Link to Ligand-Target Pair in BindingDB>
http://www.bindingdb.org/jsp/dbsearch/PrimarySearch_ki.jsp?energyterm=kJ/mole&tag=r21&monomerid=44459&enzyme=DNA+repair+protein+RAD51+homolog+1&column=ki&startPg=0&Increment=50&submit=Search

> <Ligand HET ID in PDB>


> <PDB ID(s) for Ligand-Target Complex>


> <PubChem CID of Ligand>
5749166

> <PubChem SID of Ligand>
252625074

> <ChEBI ID of Ligand>


> <ChEMBL ID of Ligand>


> <DrugBank ID of Ligand>


> <IUPHAR_GRAC ID of Ligand>


> <KEGG ID of Ligand>


> <ZINC ID of Ligand>
ZINC66129485

> <Number of Protein Chains in Target (bigger than 1 implies a multichain complex)>
1

> <BindingDB Target Chain Sequence>
MAMQMQLEANADTSVEEESFGPQPISRLEQCGINANDVKKLEEAGFHTVEAVAYAPKKELINIKGISEAKADKILAEAAKLVPMGFTTATEFHQRRSEIIQITTGSKELDKLLQGGIETGSITEMFGEFRTGKTQICHTLAVTCQLPIDRGGGEGKAMYIDTEGTFRPERLLAVAERYGLSGSDVLDNVAYARAFNTDHQTQLLYQASAMMVESRYALLIVDSATALYRTDYSGRGELSARQMHLARFLRMLLRLADEFGVAVVITNQVVAQVDGAAMFAADPKKPIGGNIIAHASTTRLYLRKGRGETRICKIYDSPCLPEAEAMFAINADGVGDAKD

> <PDB ID(s) of Target Chain>
1N0W,5JZC,5NP7,5NWL,8BQ2,8BR2,8BSC

> <UniProt (SwissProt) Recommended Name of Target Chain>
DNA repair protein RAD51 homolog 1

> <UniProt (SwissProt) Entry Name of Target Chain>
RAD51_HUMAN

> <UniProt (SwissProt) Primary ID of Target Chain>
Q06609

> <UniProt (SwissProt) Secondary ID(s) of Target Chain>
B0FXP0 B2R8T6 Q6FHX9 Q6ZNA8 Q9BV60

> <UniProt (SwissProt) Alternative ID(s) of Target Chain>


> <UniProt (TrEMBL) Submitted Name of Target Chain>


> <UniProt (TrEMBL) Entry Name of Target Chain>


> <UniProt (TrEMBL) Primary ID of Target Chain>


> <UniProt (TrEMBL) Secondary ID(s) of Target Chain>


> <UniProt (TrEMBL) Alternative ID(s) of Target Chain>


$$$$
9550373
  Mrv0541 11251416042D          

 32 35  0  0  0  0            999 V2000
    6.8260    3.9487    0.0000 O   0  0  0  0  0  0  0  0  0  0  0  0
    8.2895    3.1038    0.0000 O   0  0  0  0  0  0  0  0  0  0  0  0
    7.5305   -3.1210    0.0000 N   0  0  0  0  0  0  0  0  0  0  0  0
    6.1015   -0.6460    0.0000 N   0  0  0  0  0  0  0  0  0  0  0  0
    5.3871    0.5915    0.0000 N   0  0  0  0  0  0  0  0  0  0  0  0
    6.8161    0.5915    0.0000 N   0  0  0  0  0  0  0  0  0  0  0  0
    4.6065    0.3401    0.0000 N   0  0  0  0  0  0  0  0  0  0  0  0
    4.6065    1.6680    0.0000 N   0  0  0  0  0  0  0  0  0  0  0  0
    2.0625    0.2896    0.0000 N   0  0  0  0  0  0  0  0  0  0  0  0
    7.5305   -2.2960    0.0000 C   0  0  0  0  0  0  0  0  0  0  0  0
    6.8161   -1.8835    0.0000 C   0  0  0  0  0  0  0  0  0  0  0  0
    6.8161   -1.0585    0.0000 C   0  0  0  0  0  0  0  0  0  0  0  0
    8.2450   -3.5335    0.0000 C   0  0  0  0  0  0  0  0  0  0  0  0
    6.8161   -3.5335    0.0000 C   0  0  0  0  0  0  0  0  0  0  0  0
    6.1015    0.1790    0.0000 C   0  0  0  0  0  0  0  0  0  0  0  0
    5.3871    1.4165    0.0000 C   0  0  0  0  0  0  0  0  0  0  0  0
    6.1015    1.8290    0.0000 C   0  0  0  0  0  0  0  0  0  0  0  0
    6.8161    1.4165    0.0000 C   0  0  0  0  0  0  0  0  0  0  0  0
    8.2450   -4.3585    0.0000 C   0  0  0  0  0  0  0  0  0  0  0  0
    6.8161   -4.3585    0.0000 C   0  0  0  0  0  0  0  0  0  0  0  0
    6.0883    2.6883    0.0000 C   0  0  0  0  0  0  0  0  0  0  0  0
    7.5668    1.8347    0.0000 C   0  0  0  0  0  0  0  0  0  0  0  0
    4.1250    1.0040    0.0000 C   0  0  0  0  0  0  0  0  0  0  0  0
    6.8292    3.1237    0.0000 C   0  0  0  0  0  0  0  0  0  0  0  0
    7.5734    2.6940    0.0000 C   0  0  0  0  0  0  0  0  0  0  0  0
    3.3000    1.0040    0.0000 C   0  0  0  0  0  0  0  0  0  0  0  0
    2.8875    1.7186    0.0000 C   0  0  0  0  0  0  0  0  0  0  0  0
    2.8875    0.2896    0.0000 C   0  0  0  0  0  0  0  0  0  0  0  0
    6.1099    4.3585    0.0000 C   0  0  0  0  0  0  0  0  0  0  0  0
    2.0625    1.7186    0.0000 C   0  0  0  0  0  0  0  0  0  0  0  0
    9.0023    2.6885    0.0000 C   0  0  0  0  0  0  0  0  0  0  0  0
    1.6500    1.0040    0.0000 C   0  0  0  0  0  0  0  0  0  0  0  0
  1 24  1  0  0  0  0
  1 29  1  0  0  0  0
  2 25  1  0  0  0  0
  2 31  1  0  0  0  0
  3 10  1  0  0  0  0
  3 13  1  0  0  0  0
  3 14  1  0  0  0  0
  4 12  1  0  0  0  0
  4 15  1  0  0  0  0
  5  7  1  0  0  0  0
  5 15  1  0  0  0  0
  5 16  1  0  0  0  0
  6 15  2  0  0  0  0
  6 18  1  0  0  0  0
  7 23  2  0  0  0  0
  8 16  2  0  0  0  0
  8 23  1  0  0  0  0
  9 28  2  0  0  0  0
  9 32  1  0  0  0  0
 10 11  1  0  0  0  0
 11 12  1  0  0  0  0
 13 19  1  0  0  0  0
 14 20  1  0  0  0  0
 16 17  1  0  0  0  0
 17 18  1  0  0  0  0
 17 21  2  0  0  0  0
 18 22  2  0  0  0  0
 21 24  1  0  0  0  0
 22 25  1  0  0  0  0
 23 26  1  0  0  0  0
 24 25  2  0  0  0  0
 26 27  2  0  0  0  0
 26 28  1  0  0  0  0
 27 30  1  0  0  0  0
 30 32  2  0  0  0  0
M  END
> <From>
www.bindingDB.org

> <BindingDB Reactant_set_id>
95179

> <Ligand InChI>
InChI=1S/C23H29N7O2/c1-5-29(6-2)12-8-11-25-23-26-18-14-20(32-4)19(31-3)13-17(18)22-27-21(28-30(22)23)16-9-7-10-24-15-16/h7,9-10,13-15H,5-6,8,11-12H2,1-4H3,(H,25,26)

> <Ligand InChI Key>
XYOKHOQUHXTSPQ-UHFFFAOYSA-N

> <BindingDB MonomerID>
51311

> <BindingDB Ligand Name>
3-[[8,9-dimethoxy-2-(3-pyridyl)-[1,2,4]triazolo[1,5-c]quinazolin-5-yl]amino]propyl-diethyl-amine::MLS000520482::N-(8,9-dimethoxy-2-pyridin-3-yl-[1,2,4]triazolo[1,5-c]quinazolin-5-yl)-N',N'-diethyl-propane-1,3-diamine::N-(8,9-dimethoxy-2-pyridin-3-yl-[1,2,4]triazolo[1,5-c]quinazolin-5-yl)-N',N'-diethylpropane-1,3-diamine::N-[8,9-dimethoxy-2-(3-pyridinyl)-[1,2,4]triazolo[1,5-c]quinazolin-5-yl]-N',N'-diethylpropane-1,3-diamine::SMR000130893::cid_9550373

> <Target Name>
DNA repair protein RAD51 homolog 1

> <Target Source Organism According to Curator or DataSource>
Homo sapiens

> <Ki (nM)>


> <IC50 (nM)>
 85000

> <Kd (nM)>


> <EC50 (nM)>


> <kon (M-1-s-1)>


> <koff (s-1)>


> <pH>


> <Temp C>


> <Curation/DataSource>
PubChem

> <Article DOI>


> <BindingDB Entry DOI>
10.7270/Q2VD6WW6

> <PMID>


> <PubChem AID>
aid1436

> <Patent Number>


> <Authors>
PubChem, PC

> <Date of publication>
11/25/2008

> <Date in BindingDB>
5/31/2011

> <Institution>
PCMD

> <Link to Ligand in BindingDB>
http://www.bindingdb.org/bind/chemsearch/marvin/MolStructure.jsp?monomerid=51311

> <Link to Ligand-Target Pair in BindingDB>
http://www.bindingdb.org/jsp/dbsearch/PrimarySearch_ki.jsp?energyterm=kJ/mole&tag=pol&polymerid=4676&target=DNA+repair+protein+RAD51+homolog+1&column=ki&startPg=0&Increment=50&submit=Search

> <Link to Ligand-Target Pair in BindingDB>
http://www.bindingdb.org/jsp/dbsearch/PrimarySearch_ki.jsp?energyterm=kJ/mole&tag=r21&monomerid=51311&enzyme=DNA+repair+protein+RAD51+homolog+1&column=ki&startPg=0&Increment=50&submit=Search

> <Ligand HET ID in PDB>


> <PDB ID(s) for Ligand-Target Complex>


> <PubChem CID of Ligand>
9550373

> <PubChem SID of Ligand>
252631537

> <ChEBI ID of Ligand>


> <ChEMBL ID of Ligand>


> <DrugBank ID of Ligand>


> <IUPHAR_GRAC ID of Ligand>


> <KEGG ID of Ligand>


> <ZINC ID of Ligand>
ZINC00910869

> <Number of Protein Chains in Target (bigger than 1 implies a multichain complex)>
1

> <BindingDB Target Chain Sequence>
MAMQMQLEANADTSVEEESFGPQPISRLEQCGINANDVKKLEEAGFHTVEAVAYAPKKELINIKGISEAKADKILAEAAKLVPMGFTTATEFHQRRSEIIQITTGSKELDKLLQGGIETGSITEMFGEFRTGKTQICHTLAVTCQLPIDRGGGEGKAMYIDTEGTFRPERLLAVAERYGLSGSDVLDNVAYARAFNTDHQTQLLYQASAMMVESRYALLIVDSATALYRTDYSGRGELSARQMHLARFLRMLLRLADEFGVAVVITNQVVAQVDGAAMFAADPKKPIGGNIIAHASTTRLYLRKGRGETRICKIYDSPCLPEAEAMFAINADGVGDAKD

> <PDB ID(s) of Target Chain>
1N0W,5JZC,5NP7,5NWL,8BQ2,8BR2,8BSC

> <UniProt (SwissProt) Recommended Name of Target Chain>
DNA repair protein RAD51 homolog 1

> <UniProt (SwissProt) Entry Name of Target Chain>
RAD51_HUMAN

> <UniProt (SwissProt) Primary ID of Target Chain>
Q06609

> <UniProt (SwissProt) Secondary ID(s) of Target Chain>
B0FXP0 B2R8T6 Q6FHX9 Q6ZNA8 Q9BV60

> <UniProt (SwissProt) Alternative ID(s) of Target Chain>


> <UniProt (TrEMBL) Submitted Name of Target Chain>


> <UniProt (TrEMBL) Entry Name of Target Chain>


> <UniProt (TrEMBL) Primary ID of Target Chain>


> <UniProt (TrEMBL) Secondary ID(s) of Target Chain>


> <UniProt (TrEMBL) Alternative ID(s) of Target Chain>


$$$$
6622924
  Mrv0541 11251416042D          

 32 35  0  0  0  0            999 V2000
    6.8260    3.9487    0.0000 O   0  0  0  0  0  0  0  0  0  0  0  0
    8.2895    3.1038    0.0000 O   0  0  0  0  0  0  0  0  0  0  0  0
    7.5305   -3.1210    0.0000 N   0  0  0  0  0  0  0  0  0  0  0  0
    6.1015   -0.6460    0.0000 N   0  0  0  0  0  0  0  0  0  0  0  0
    5.3871    0.5915    0.0000 N   0  0  0  0  0  0  0  0  0  0  0  0
    6.8161    0.5915    0.0000 N   0  0  0  0  0  0  0  0  0  0  0  0
    4.6065    0.3401    0.0000 N   0  0  0  0  0  0  0  0  0  0  0  0
    4.6065    1.6680    0.0000 N   0  0  0  0  0  0  0  0  0  0  0  0
    7.5305   -2.2960    0.0000 C   0  0  0  0  0  0  0  0  0  0  0  0
    6.8161   -1.8835    0.0000 C   0  0  0  0  0  0  0  0  0  0  0  0
    6.8161   -1.0585    0.0000 C   0  0  0  0  0  0  0  0  0  0  0  0
    8.2450   -3.5335    0.0000 C   0  0  0  0  0  0  0  0  0  0  0  0
    6.8161   -3.5335    0.0000 C   0  0  0  0  0  0  0  0  0  0  0  0
    6.1015    0.1790    0.0000 C   0  0  0  0  0  0  0  0  0  0  0  0
    5.3871    1.4165    0.0000 C   0  0  0  0  0  0  0  0  0  0  0  0
    6.1015    1.8290    0.0000 C   0  0  0  0  0  0  0  0  0  0  0  0
    6.8161    1.4165    0.0000 C   0  0  0  0  0  0  0  0  0  0  0  0
    8.2450   -4.3585    0.0000 C   0  0  0  0  0  0  0  0  0  0  0  0
    6.8161   -4.3585    0.0000 C   0  0  0  0  0  0  0  0  0  0  0  0
    6.0883    2.6883    0.0000 C   0  0  0  0  0  0  0  0  0  0  0  0
    4.1250    1.0040    0.0000 C   0  0  0  0  0  0  0  0  0  0  0  0
    7.5668    1.8347    0.0000 C   0  0  0  0  0  0  0  0  0  0  0  0
    6.8292    3.1237    0.0000 C   0  0  0  0  0  0  0  0  0  0  0  0
    7.5734    2.6940    0.0000 C   0  0  0  0  0  0  0  0  0  0  0  0
    3.3000    1.0040    0.0000 C   0  0  0  0  0  0  0  0  0  0  0  0
    2.8875    1.7186    0.0000 C   0  0  0  0  0  0  0  0  0  0  0  0
    2.8875    0.2896    0.0000 C   0  0  0  0  0  0  0  0  0  0  0  0
    2.0625    1.7186    0.0000 C   0  0  0  0  0  0  0  0  0  0  0  0
    2.0625    0.2896    0.0000 C   0  0  0  0  0  0  0  0  0  0  0  0
    1.6500    1.0040    0.0000 C   0  0  0  0  0  0  0  0  0  0  0  0
    6.1099    4.3585    0.0000 C   0  0  0  0  0  0  0  0  0  0  0  0
    9.0023    2.6885    0.0000 C   0  0  0  0  0  0  0  0  0  0  0  0
  1 23  1  0  0  0  0
  1 31  1  0  0  0  0
  2 24  1  0  0  0  0
  2 32  1  0  0  0  0
  3  9  1  0  0  0  0
  3 12  1  0  0  0  0
  3 13  1  0  0  0  0
  4 11  1  0  0  0  0
  4 14  1  0  0  0  0
  5  7  1  0  0  0  0
  5 14  1  0  0  0  0
  5 15  1  0  0  0  0
  6 14  2  0  0  0  0
  6 17  1  0  0  0  0
  7 21  2  0  0  0  0
  8 15  2  0  0  0  0
  8 21  1  0  0  0  0
  9 10  1  0  0  0  0
 10 11  1  0  0  0  0
 12 18  1  0  0  0  0
 13 19  1  0  0  0  0
 15 16  1  0  0  0  0
 16 17  1  0  0  0  0
 16 20  2  0  0  0  0
 17 22  2  0  0  0  0
 20 23  1  0  0  0  0
 21 25  1  0  0  0  0
 22 24  1  0  0  0  0
 23 24  2  0  0  0  0
 25 26  2  0  0  0  0
 25 27  1  0  0  0  0
 26 28  1  0  0  0  0
 27 29  2  0  0  0  0
 28 30  2  0  0  0  0
 29 30  1  0  0  0  0
M  END
> <From>
www.bindingDB.org

> <BindingDB Reactant_set_id>
95180

> <Ligand InChI>
InChI=1S/C24H30N6O2/c1-5-29(6-2)14-10-13-25-24-26-19-16-21(32-4)20(31-3)15-18(19)23-27-22(28-30(23)24)17-11-8-7-9-12-17/h7-9,11-12,15-16H,5-6,10,13-14H2,1-4H3,(H,25,26)

> <Ligand InChI Key>
FCDSTYYADHPQEM-UHFFFAOYSA-N

> <BindingDB MonomerID>
51312

> <BindingDB Ligand Name>
3-[(8,9-dimethoxy-2-phenyl-[1,2,4]triazolo[1,5-c]quinazolin-5-yl)amino]propyl-diethyl-amine::MLS000520480::N-(8,9-dimethoxy-2-phenyl-[1,2,4]triazolo[1,5-c]quinazolin-5-yl)-N',N'-diethyl-propane-1,3-diamine::N-(8,9-dimethoxy-2-phenyl-[1,2,4]triazolo[1,5-c]quinazolin-5-yl)-N',N'-diethylpropane-1,3-diamine::SMR000130891::US9211296, Table 7, Compd: 11::cid_6622924

> <Target Name>
DNA repair protein RAD51 homolog 1

> <Target Source Organism According to Curator or DataSource>
Homo sapiens

> <Ki (nM)>


> <IC50 (nM)>
 85000

> <Kd (nM)>


> <EC50 (nM)>


> <kon (M-1-s-1)>


> <koff (s-1)>


> <pH>


> <Temp C>


> <Curation/DataSource>
PubChem

> <Article DOI>


> <BindingDB Entry DOI>
10.7270/Q2VD6WW6

> <PMID>


> <PubChem AID>
aid1436

> <Patent Number>


> <Authors>
PubChem, PC

> <Date of publication>
11/25/2008

> <Date in BindingDB>
5/31/2011

> <Institution>
PCMD

> <Link to Ligand in BindingDB>
http://www.bindingdb.org/bind/chemsearch/marvin/MolStructure.jsp?monomerid=51312

> <Link to Ligand-Target Pair in BindingDB>
http://www.bindingdb.org/jsp/dbsearch/PrimarySearch_ki.jsp?energyterm=kJ/mole&tag=pol&polymerid=4676&target=DNA+repair+protein+RAD51+homolog+1&column=ki&startPg=0&Increment=50&submit=Search

> <Link to Ligand-Target Pair in BindingDB>
http://www.bindingdb.org/jsp/dbsearch/PrimarySearch_ki.jsp?energyterm=kJ/mole&tag=r21&monomerid=51312&enzyme=DNA+repair+protein+RAD51+homolog+1&column=ki&startPg=0&Increment=50&submit=Search

> <Ligand HET ID in PDB>


> <PDB ID(s) for Ligand-Target Complex>


> <PubChem CID of Ligand>
6622924

> <PubChem SID of Ligand>
252631538

> <ChEBI ID of Ligand>


> <ChEMBL ID of Ligand>


> <DrugBank ID of Ligand>


> <IUPHAR_GRAC ID of Ligand>


> <KEGG ID of Ligand>


> <ZINC ID of Ligand>
ZINC00128818

> <Number of Protein Chains in Target (bigger than 1 implies a multichain complex)>
1

> <BindingDB Target Chain Sequence>
MAMQMQLEANADTSVEEESFGPQPISRLEQCGINANDVKKLEEAGFHTVEAVAYAPKKELINIKGISEAKADKILAEAAKLVPMGFTTATEFHQRRSEIIQITTGSKELDKLLQGGIETGSITEMFGEFRTGKTQICHTLAVTCQLPIDRGGGEGKAMYIDTEGTFRPERLLAVAERYGLSGSDVLDNVAYARAFNTDHQTQLLYQASAMMVESRYALLIVDSATALYRTDYSGRGELSARQMHLARFLRMLLRLADEFGVAVVITNQVVAQVDGAAMFAADPKKPIGGNIIAHASTTRLYLRKGRGETRICKIYDSPCLPEAEAMFAINADGVGDAKD

> <PDB ID(s) of Target Chain>
1N0W,5JZC,5NP7,5NWL,8BQ2,8BR2,8BSC

> <UniProt (SwissProt) Recommended Name of Target Chain>
DNA repair protein RAD51 homolog 1

> <UniProt (SwissProt) Entry Name of Target Chain>
RAD51_HUMAN

> <UniProt (SwissProt) Primary ID of Target Chain>
Q06609

> <UniProt (SwissProt) Secondary ID(s) of Target Chain>
B0FXP0 B2R8T6 Q6FHX9 Q6ZNA8 Q9BV60

> <UniProt (SwissProt) Alternative ID(s) of Target Chain>


> <UniProt (TrEMBL) Submitted Name of Target Chain>


> <UniProt (TrEMBL) Entry Name of Target Chain>


> <UniProt (TrEMBL) Primary ID of Target Chain>


> <UniProt (TrEMBL) Secondary ID(s) of Target Chain>


> <UniProt (TrEMBL) Alternative ID(s) of Target Chain>


$$$$
4884909
  Mrv0541 11251415482D          

 31 33  0  0  1  0            999 V2000
    3.7935   -1.5729    0.0000 S   0  0  0  0  0  0  0  0  0  0  0  0
    8.0241   -0.7479    0.0000 S   0  0  0  0  0  0  0  0  0  0  0  0
    3.3810   -0.8584    0.0000 O   0  0  0  0  0  0  0  0  0  0  0  0
    4.2060   -2.2874    0.0000 O   0  0  0  0  0  0  0  0  0  0  0  0
    7.7428    3.0528    0.0000 O   0  0  0  0  0  0  0  0  0  0  0  0
    9.6742   -0.7479    0.0000 O   0  0  0  0  0  0  0  0  0  0  0  0
    3.0790   -1.9854    0.0000 N   0  0  0  0  0  0  0  0  0  0  0  0
    6.7176   -0.0840    0.0000 N   0  0  0  0  0  0  0  0  0  0  0  0
    6.7176   -1.4118    0.0000 N   0  0  0  0  0  0  0  0  0  0  0  0
    9.6742   -2.1769    0.0000 N   0  0  0  0  0  0  0  0  0  0  0  0
    4.5080   -1.1604    0.0000 C   0  0  0  0  0  0  0  0  0  0  0  0
    5.9370   -0.3354    0.0000 C   0  0  0  0  0  0  0  0  0  0  0  0
    5.9370   -1.1604    0.0000 C   0  0  0  0  0  0  0  0  0  0  0  0
    5.2224   -1.5729    0.0000 C   0  0  0  0  0  0  0  0  0  0  0  0
    2.3645   -1.5729    0.0000 C   0  0  0  0  0  0  0  0  0  0  0  0
    3.0790   -2.8104    0.0000 C   0  0  0  0  0  0  0  0  0  0  0  0
    4.5080   -0.3354    0.0000 C   0  0  0  0  0  0  0  0  0  0  0  0
    5.2224    0.0771    0.0000 C   0  0  0  0  0  0  0  0  0  0  0  0
    7.1991   -0.7479    0.0000 C   0  0  0  0  0  0  0  0  0  0  0  0
    6.9739    0.7002    0.0000 C   0  0  0  0  0  0  0  0  0  0  0  0
    1.6500   -1.9854    0.0000 C   0  0  0  0  0  0  0  0  0  0  0  0
    2.3645   -3.2229    0.0000 C   0  0  0  0  0  0  0  0  0  0  0  0
    6.4229    1.3143    0.0000 C   0  0  0  0  0  0  0  0  0  0  0  0
    7.7812    0.8704    0.0000 C   0  0  0  0  0  0  0  0  0  0  0  0
    8.4366   -1.4623    0.0000 C   0  0  0  0  0  0  0  0  0  0  0  0
    6.6792    2.0985    0.0000 C   0  0  0  0  0  0  0  0  0  0  0  0
    8.0375    1.6546    0.0000 C   0  0  0  0  0  0  0  0  0  0  0  0
    7.4865    2.2686    0.0000 C   0  0  0  0  0  0  0  0  0  0  0  0
    8.0241   -2.1769    0.0000 C   0  0  0  0  0  0  0  0  0  0  0  0
    9.2617   -1.4623    0.0000 C   0  0  0  0  0  0  0  0  0  0  0  0
    8.5501    3.2229    0.0000 C   0  0  0  0  0  0  0  0  0  0  0  0
  1  3  2  0  0  0  0
  1  4  2  0  0  0  0
  1  7  1  0  0  0  0
  1 11  1  0  0  0  0
  2 19  1  0  0  0  0
  2 25  1  0  0  0  0
  5 28  1  0  0  0  0
  5 31  1  0  0  0  0
  6 30  2  0  0  0  0
  7 15  1  0  0  0  0
  7 16  1  0  0  0  0
  8 12  1  0  0  0  0
  8 19  1  0  0  0  0
  8 20  1  0  0  0  0
  9 13  1  0  0  0  0
  9 19  2  0  0  0  0
 10 30  1  0  0  0  0
 11 14  1  0  0  0  0
 11 17  2  0  0  0  0
 12 13  1  0  0  0  0
 12 18  2  0  0  0  0
 13 14  2  0  0  0  0
 15 21  1  0  0  0  0
 16 22  1  0  0  0  0
 17 18  1  0  0  0  0
 20 23  2  0  0  0  0
 20 24  1  0  0  0  0
 23 26  1  0  0  0  0
 24 27  2  0  0  0  0
 25 29  1  0  0  0  0
 25 30  1  0  0  0  0
 26 28  2  0  0  0  0
 27 28  1  0  0  0  0
M  END
> <From>
www.bindingDB.org

> <BindingDB Reactant_set_id>
95181

> <Ligand InChI>
InChI=1S/C21H26N4O4S2/c1-5-24(6-2)31(27,28)17-11-12-19-18(13-17)23-21(30-14(3)20(22)26)25(19)15-7-9-16(29-4)10-8-15/h7-14H,5-6H2,1-4H3,(H2,22,26)

> <Ligand InChI Key>
UXBCXLRSWXQDTE-UHFFFAOYSA-N

> <BindingDB MonomerID>
43826

> <BindingDB Ligand Name>
2-[5-(diethylsulfamoyl)-1-(4-methoxyphenyl)benzimidazol-2-yl]sulfanylpropanamide::2-[[5-(diethylsulfamoyl)-1-(4-methoxyphenyl)-2-benzimidazolyl]thio]propanamide::2-[[5-(diethylsulfamoyl)-1-(4-methoxyphenyl)benzimidazol-2-yl]thio]propionamide::Aminoglycosides, 5::MLS000568202::SMR000154533::cid_4884909

> <Target Name>
DNA repair protein RAD51 homolog 1

> <Target Source Organism According to Curator or DataSource>
Homo sapiens

> <Ki (nM)>


> <IC50 (nM)>
 85000

> <Kd (nM)>


> <EC50 (nM)>


> <kon (M-1-s-1)>


> <koff (s-1)>


> <pH>


> <Temp C>


> <Curation/DataSource>
PubChem

> <Article DOI>


> <BindingDB Entry DOI>
10.7270/Q2VD6WW6

> <PMID>


> <PubChem AID>
aid1436

> <Patent Number>


> <Authors>
PubChem, PC

> <Date of publication>
11/25/2008

> <Date in BindingDB>
5/31/2011

> <Institution>
PCMD

> <Link to Ligand in BindingDB>
http://www.bindingdb.org/bind/chemsearch/marvin/MolStructure.jsp?monomerid=43826

> <Link to Ligand-Target Pair in BindingDB>
http://www.bindingdb.org/jsp/dbsearch/PrimarySearch_ki.jsp?energyterm=kJ/mole&tag=pol&polymerid=4676&target=DNA+repair+protein+RAD51+homolog+1&column=ki&startPg=0&Increment=50&submit=Search

> <Link to Ligand-Target Pair in BindingDB>
http://www.bindingdb.org/jsp/dbsearch/PrimarySearch_ki.jsp?energyterm=kJ/mole&tag=r21&monomerid=43826&enzyme=DNA+repair+protein+RAD51+homolog+1&column=ki&startPg=0&Increment=50&submit=Search

> <Ligand HET ID in PDB>


> <PDB ID(s) for Ligand-Target Complex>


> <PubChem CID of Ligand>
4884909

> <PubChem SID of Ligand>
123080184

> <ChEBI ID of Ligand>


> <ChEMBL ID of Ligand>


> <DrugBank ID of Ligand>


> <IUPHAR_GRAC ID of Ligand>


> <KEGG ID of Ligand>


> <ZINC ID of Ligand>
ZINC06153489

> <Number of Protein Chains in Target (bigger than 1 implies a multichain complex)>
1

> <BindingDB Target Chain Sequence>
MAMQMQLEANADTSVEEESFGPQPISRLEQCGINANDVKKLEEAGFHTVEAVAYAPKKELINIKGISEAKADKILAEAAKLVPMGFTTATEFHQRRSEIIQITTGSKELDKLLQGGIETGSITEMFGEFRTGKTQICHTLAVTCQLPIDRGGGEGKAMYIDTEGTFRPERLLAVAERYGLSGSDVLDNVAYARAFNTDHQTQLLYQASAMMVESRYALLIVDSATALYRTDYSGRGELSARQMHLARFLRMLLRLADEFGVAVVITNQVVAQVDGAAMFAADPKKPIGGNIIAHASTTRLYLRKGRGETRICKIYDSPCLPEAEAMFAINADGVGDAKD

> <PDB ID(s) of Target Chain>
1N0W,5JZC,5NP7,5NWL,8BQ2,8BR2,8BSC

> <UniProt (SwissProt) Recommended Name of Target Chain>
DNA repair protein RAD51 homolog 1

> <UniProt (SwissProt) Entry Name of Target Chain>
RAD51_HUMAN

> <UniProt (SwissProt) Primary ID of Target Chain>
Q06609

> <UniProt (SwissProt) Secondary ID(s) of Target Chain>
B0FXP0 B2R8T6 Q6FHX9 Q6ZNA8 Q9BV60

> <UniProt (SwissProt) Alternative ID(s) of Target Chain>


> <UniProt (TrEMBL) Submitted Name of Target Chain>


> <UniProt (TrEMBL) Entry Name of Target Chain>


> <UniProt (TrEMBL) Primary ID of Target Chain>


> <UniProt (TrEMBL) Secondary ID(s) of Target Chain>


> <UniProt (TrEMBL) Alternative ID(s) of Target Chain>


$$$$
16188549
  Mrv0541 11251416042D          

 28 31  0  0  0  0            999 V2000
    9.4812    3.6126    0.0000 Cl  0  0  0  0  0  0  0  0  0  0  0  0
    6.5688    5.2826    0.0000 O   0  0  0  0  0  0  0  0  0  0  0  0
    4.4254    1.5700    0.0000 N   0  0  0  0  0  0  0  0  0  0  0  0
    6.5688    2.8075    0.0000 N   0  3  0  0  0  0  0  0  0  0  0  0
    5.1399    1.1575    0.0000 C   0  0  0  0  0  0  0  0  0  0  0  0
    4.4254    2.3950    0.0000 C   0  0  0  0  0  0  0  0  0  0  0  0
    5.8543    2.3950    0.0000 C   0  0  0  0  0  0  0  0  0  0  0  0
    5.1399    2.8075    0.0000 C   0  0  0  0  0  0  0  0  0  0  0  0
    5.8543    1.5700    0.0000 C   0  0  0  0  0  0  0  0  0  0  0  0
    3.6004    2.3950    0.0000 C   0  0  0  0  0  0  0  0  0  0  0  0
    4.0129    3.1095    0.0000 C   0  0  0  0  0  0  0  0  0  0  0  0
    4.7274    0.4430    0.0000 C   0  0  0  0  0  0  0  0  0  0  0  0
    5.5524    0.4430    0.0000 C   0  0  0  0  0  0  0  0  0  0  0  0
    6.5688    3.6326    0.0000 C   0  0  0  0  0  0  0  0  0  0  0  0
    7.2833    4.0451    0.0000 C   0  0  0  0  0  0  0  0  0  0  0  0
    5.8543    4.0451    0.0000 C   0  0  0  0  0  0  0  0  0  0  0  0
    7.2833    4.8701    0.0000 C   0  0  0  0  0  0  0  0  0  0  0  0
    5.8543    4.8701    0.0000 C   0  0  0  0  0  0  0  0  0  0  0  0
    8.0208    3.6039    0.0000 C   0  0  0  0  0  0  0  0  0  0  0  0
    8.0208    5.3111    0.0000 C   0  0  0  0  0  0  0  0  0  0  0  0
    5.1399    5.2826    0.0000 C   0  0  0  0  0  0  0  0  0  0  0  0
    8.7684    4.0279    0.0000 C   0  0  0  0  0  0  0  0  0  0  0  0
    8.7684    4.8872    0.0000 C   0  0  0  0  0  0  0  0  0  0  0  0
    5.1399    6.1076    0.0000 C   0  0  0  0  0  0  0  0  0  0  0  0
    4.4254    4.8701    0.0000 C   0  0  0  0  0  0  0  0  0  0  0  0
    4.4254    6.5201    0.0000 C   0  0  0  0  0  0  0  0  0  0  0  0
    3.7108    5.2826    0.0000 C   0  0  0  0  0  0  0  0  0  0  0  0
    3.7108    6.1076    0.0000 C   0  0  0  0  0  0  0  0  0  0  0  0
  1 22  1  0  0  0  0
  2 17  1  0  0  0  0
  2 18  1  0  0  0  0
  3  5  1  0  0  0  0
  3  6  1  0  0  0  0
  4  7  1  0  0  0  0
  4 14  2  0  0  0  0
  5  9  1  0  0  0  0
  5 12  1  0  0  0  0
  5 13  1  0  0  0  0
  6  8  1  0  0  0  0
  6 10  1  0  0  0  0
  6 11  1  0  0  0  0
  7  8  1  0  0  0  0
  7  9  1  0  0  0  0
 14 15  1  0  0  0  0
 14 16  1  0  0  0  0
 15 17  1  0  0  0  0
 15 19  2  0  0  0  0
 16 18  2  0  0  0  0
 17 20  2  0  0  0  0
 18 21  1  0  0  0  0
 19 22  1  0  0  0  0
 20 23  1  0  0  0  0
 21 24  2  0  0  0  0
 21 25  1  0  0  0  0
 22 23  2  0  0  0  0
 24 26  1  0  0  0  0
 25 27  2  0  0  0  0
 26 28  2  0  0  0  0
 27 28  1  0  0  0  0
M  CHG  1   4   1
M  END
> <From>
www.bindingDB.org

> <BindingDB Reactant_set_id>
95182

> <Ligand InChI>
InChI=1S/C24H27ClN2O/c1-23(2)14-18(15-24(3,4)27-23)26-20-13-22(16-8-6-5-7-9-16)28-21-11-10-17(25)12-19(20)21/h5-13,18,27H,14-15H2,1-4H3/p+1/b26-20+

> <Ligand InChI Key>
KMGDKZROVQMFQA-LHLOQNFPSA-O

> <BindingDB MonomerID>
51314

> <BindingDB Ligand Name>
(6-chloranyl-2-phenyl-chromen-4-ylidene)-(2,2,6,6-tetramethylpiperidin-4-yl)azanium;tetrafluoroborate::(6-chloro-2-phenyl-1-benzopyran-4-ylidene)-(2,2,6,6-tetramethyl-4-piperidinyl)ammonium;tetrafluoroborate::(6-chloro-2-phenyl-chromen-4-ylidene)-(2,2,6,6-tetramethyl-4-piperidyl)ammonium;tetrafluoroborate::(6-chloro-2-phenylchromen-4-ylidene)-(2,2,6,6-tetramethylpiperidin-4-yl)azanium;tetrafluoroborate::MLS000727607::N-[(4E)-6-chloro-2-phenyl-4H-chromen-4-ylidene]-2,2,6,6-tetramethylpiperidin-4-aminium::SMR000306304::cid_16188549

> <Target Name>
DNA repair protein RAD51 homolog 1

> <Target Source Organism According to Curator or DataSource>
Homo sapiens

> <Ki (nM)>


> <IC50 (nM)>
 3660

> <Kd (nM)>


> <EC50 (nM)>


> <kon (M-1-s-1)>


> <koff (s-1)>


> <pH>


> <Temp C>


> <Curation/DataSource>
PubChem

> <Article DOI>


> <BindingDB Entry DOI>
10.7270/Q2VD6WW6

> <PMID>


> <PubChem AID>
aid1436

> <Patent Number>


> <Authors>
PubChem, PC

> <Date of publication>
11/25/2008

> <Date in BindingDB>
5/31/2011

> <Institution>
PCMD

> <Link to Ligand in BindingDB>
http://www.bindingdb.org/bind/chemsearch/marvin/MolStructure.jsp?monomerid=51314

> <Link to Ligand-Target Pair in BindingDB>
http://www.bindingdb.org/jsp/dbsearch/PrimarySearch_ki.jsp?energyterm=kJ/mole&tag=pol&polymerid=4676&target=DNA+repair+protein+RAD51+homolog+1&column=ki&startPg=0&Increment=50&submit=Search

> <Link to Ligand-Target Pair in BindingDB>
http://www.bindingdb.org/jsp/dbsearch/PrimarySearch_ki.jsp?energyterm=kJ/mole&tag=r21&monomerid=51314&enzyme=DNA+repair+protein+RAD51+homolog+1&column=ki&startPg=0&Increment=50&submit=Search

> <Ligand HET ID in PDB>


> <PDB ID(s) for Ligand-Target Complex>


> <PubChem CID of Ligand>
46500345

> <PubChem SID of Ligand>
252631539

> <ChEBI ID of Ligand>


> <ChEMBL ID of Ligand>


> <DrugBank ID of Ligand>


> <IUPHAR_GRAC ID of Ligand>


> <KEGG ID of Ligand>


> <ZINC ID of Ligand>
ZINC19789816

> <Number of Protein Chains in Target (bigger than 1 implies a multichain complex)>
1

> <BindingDB Target Chain Sequence>
MAMQMQLEANADTSVEEESFGPQPISRLEQCGINANDVKKLEEAGFHTVEAVAYAPKKELINIKGISEAKADKILAEAAKLVPMGFTTATEFHQRRSEIIQITTGSKELDKLLQGGIETGSITEMFGEFRTGKTQICHTLAVTCQLPIDRGGGEGKAMYIDTEGTFRPERLLAVAERYGLSGSDVLDNVAYARAFNTDHQTQLLYQASAMMVESRYALLIVDSATALYRTDYSGRGELSARQMHLARFLRMLLRLADEFGVAVVITNQVVAQVDGAAMFAADPKKPIGGNIIAHASTTRLYLRKGRGETRICKIYDSPCLPEAEAMFAINADGVGDAKD

> <PDB ID(s) of Target Chain>
1N0W,5JZC,5NP7,5NWL,8BQ2,8BR2,8BSC

> <UniProt (SwissProt) Recommended Name of Target Chain>
DNA repair protein RAD51 homolog 1

> <UniProt (SwissProt) Entry Name of Target Chain>
RAD51_HUMAN

> <UniProt (SwissProt) Primary ID of Target Chain>
Q06609

> <UniProt (SwissProt) Secondary ID(s) of Target Chain>
B0FXP0 B2R8T6 Q6FHX9 Q6ZNA8 Q9BV60

> <UniProt (SwissProt) Alternative ID(s) of Target Chain>


> <UniProt (TrEMBL) Submitted Name of Target Chain>


> <UniProt (TrEMBL) Entry Name of Target Chain>


> <UniProt (TrEMBL) Primary ID of Target Chain>


> <UniProt (TrEMBL) Secondary ID(s) of Target Chain>


> <UniProt (TrEMBL) Alternative ID(s) of Target Chain>


$$$$
5738263
  Mrv0541 11251415582D          

 26 29  0  0  0  0            999 V2000
    5.2223   -1.6500    0.0000 O   0  0  0  0  0  0  0  0  0  0  0  0
    4.5079   -0.4125    0.0000 N   0  0  0  0  0  0  0  0  0  0  0  0
    5.2223    0.8250    0.0000 N   0  0  0  0  0  0  0  0  0  0  0  0
    1.6500    2.0625    0.0000 N   0  0  0  0  0  0  0  0  0  0  0  0
    3.7934   -0.8250    0.0000 C   0  0  0  0  0  0  0  0  0  0  0  0
    4.5079    0.4125    0.0000 C   0  0  0  0  0  0  0  0  0  0  0  0
    5.9369   -0.4125    0.0000 C   0  0  0  0  0  0  0  0  0  0  0  0
    5.2223   -0.8250    0.0000 C   0  0  0  0  0  0  0  0  0  0  0  0
    3.7934   -1.6500    0.0000 C   0  0  0  0  0  0  0  0  0  0  0  0
    5.9369    0.4125    0.0000 C   0  0  0  0  0  0  0  0  0  0  0  0
    6.6743   -0.8536    0.0000 C   0  0  0  0  0  0  0  0  0  0  0  0
    3.7934    0.8250    0.0000 C   0  0  0  0  0  0  0  0  0  0  0  0
    6.6743    0.8536    0.0000 C   0  0  0  0  0  0  0  0  0  0  0  0
    3.0789   -2.0625    0.0000 C   0  0  0  0  0  0  0  0  0  0  0  0
    4.5079   -2.0625    0.0000 C   0  0  0  0  0  0  0  0  0  0  0  0
    7.4219   -0.4297    0.0000 C   0  0  0  0  0  0  0  0  0  0  0  0
    7.4219    0.4297    0.0000 C   0  0  0  0  0  0  0  0  0  0  0  0
    3.7934    1.6500    0.0000 C   0  0  0  0  0  0  0  0  0  0  0  0
    3.0789   -2.8875    0.0000 C   0  0  0  0  0  0  0  0  0  0  0  0
    4.5079   -2.8875    0.0000 C   0  0  0  0  0  0  0  0  0  0  0  0
    3.7934   -3.3000    0.0000 C   0  0  0  0  0  0  0  0  0  0  0  0
    3.0789    2.0625    0.0000 C   0  0  0  0  0  0  0  0  0  0  0  0
    3.0789    2.8875    0.0000 C   0  0  0  0  0  0  0  0  0  0  0  0
    2.3644    1.6500    0.0000 C   0  0  0  0  0  0  0  0  0  0  0  0
    2.3644    3.3000    0.0000 C   0  0  0  0  0  0  0  0  0  0  0  0
    1.6500    2.8875    0.0000 C   0  0  0  0  0  0  0  0  0  0  0  0
  1  8  2  0  0  0  0
  2  5  1  0  0  0  0
  2  6  1  0  0  0  0
  2  8  1  0  0  0  0
  3  6  2  0  0  0  0
  3 10  1  0  0  0  0
  4 24  2  0  0  0  0
  4 26  1  0  0  0  0
  5  9  1  0  0  0  0
  6 12  1  0  0  0  0
  7  8  1  0  0  0  0
  7 10  1  0  0  0  0
  7 11  2  0  0  0  0
  9 14  2  0  0  0  0
  9 15  1  0  0  0  0
 10 13  2  0  0  0  0
 11 16  1  0  0  0  0
 12 18  2  0  0  0  0
 13 17  1  0  0  0  0
 14 19  1  0  0  0  0
 15 20  2  0  0  0  0
 16 17  2  0  0  0  0
 18 22  1  0  0  0  0
 19 21  2  0  0  0  0
 20 21  1  0  0  0  0
 22 23  2  0  0  0  0
 22 24  1  0  0  0  0
 23 25  1  0  0  0  0
 25 26  2  0  0  0  0
M  END
> <From>
www.bindingDB.org

> <BindingDB Reactant_set_id>
95183

> <Ligand InChI>
InChI=1S/C22H17N3O/c26-22-19-10-4-5-11-20(19)24-21(13-12-17-9-6-14-23-15-17)25(22)16-18-7-2-1-3-8-18/h1-15H,16H2/b13-12+

> <Ligand InChI Key>
GEKDQXSPTHHANP-OUKQBFOZSA-N

> <BindingDB MonomerID>
48804

> <BindingDB Ligand Name>
3-(phenylmethyl)-2-[(E)-2-(3-pyridinyl)ethenyl]-4-quinazolinone::3-(phenylmethyl)-2-[(E)-2-pyridin-3-ylethenyl]quinazolin-4-one::3-benzyl-2-[(E)-2-(3-pyridyl)vinyl]quinazolin-4-one::3-benzyl-2-[(E)-2-pyridin-3-ylethenyl]quinazolin-4-one::MLS000709026::SMR000289793::cid_5738263

> <Target Name>
DNA repair protein RAD51 homolog 1

> <Target Source Organism According to Curator or DataSource>
Homo sapiens

> <Ki (nM)>


> <IC50 (nM)>
 42500

> <Kd (nM)>


> <EC50 (nM)>


> <kon (M-1-s-1)>


> <koff (s-1)>


> <pH>


> <Temp C>


> <Curation/DataSource>
PubChem

> <Article DOI>


> <BindingDB Entry DOI>
10.7270/Q2VD6WW6

> <PMID>


> <PubChem AID>
aid1436

> <Patent Number>


> <Authors>
PubChem, PC

> <Date of publication>
11/25/2008

> <Date in BindingDB>
5/31/2011

> <Institution>
PCMD

> <Link to Ligand in BindingDB>
http://www.bindingdb.org/bind/chemsearch/marvin/MolStructure.jsp?monomerid=48804

> <Link to Ligand-Target Pair in BindingDB>
http://www.bindingdb.org/jsp/dbsearch/PrimarySearch_ki.jsp?energyterm=kJ/mole&tag=pol&polymerid=4676&target=DNA+repair+protein+RAD51+homolog+1&column=ki&startPg=0&Increment=50&submit=Search

> <Link to Ligand-Target Pair in BindingDB>
http://www.bindingdb.org/jsp/dbsearch/PrimarySearch_ki.jsp?energyterm=kJ/mole&tag=r21&monomerid=48804&enzyme=DNA+repair+protein+RAD51+homolog+1&column=ki&startPg=0&Increment=50&submit=Search

> <Ligand HET ID in PDB>


> <PDB ID(s) for Ligand-Target Complex>


> <PubChem CID of Ligand>
5738263

> <PubChem SID of Ligand>
252629091

> <ChEBI ID of Ligand>


> <ChEMBL ID of Ligand>


> <DrugBank ID of Ligand>


> <IUPHAR_GRAC ID of Ligand>


> <KEGG ID of Ligand>


> <ZINC ID of Ligand>
ZINC04537641

> <Number of Protein Chains in Target (bigger than 1 implies a multichain complex)>
1

> <BindingDB Target Chain Sequence>
MAMQMQLEANADTSVEEESFGPQPISRLEQCGINANDVKKLEEAGFHTVEAVAYAPKKELINIKGISEAKADKILAEAAKLVPMGFTTATEFHQRRSEIIQITTGSKELDKLLQGGIETGSITEMFGEFRTGKTQICHTLAVTCQLPIDRGGGEGKAMYIDTEGTFRPERLLAVAERYGLSGSDVLDNVAYARAFNTDHQTQLLYQASAMMVESRYALLIVDSATALYRTDYSGRGELSARQMHLARFLRMLLRLADEFGVAVVITNQVVAQVDGAAMFAADPKKPIGGNIIAHASTTRLYLRKGRGETRICKIYDSPCLPEAEAMFAINADGVGDAKD

> <PDB ID(s) of Target Chain>
1N0W,5JZC,5NP7,5NWL,8BQ2,8BR2,8BSC

> <UniProt (SwissProt) Recommended Name of Target Chain>
DNA repair protein RAD51 homolog 1

> <UniProt (SwissProt) Entry Name of Target Chain>
RAD51_HUMAN

> <UniProt (SwissProt) Primary ID of Target Chain>
Q06609

> <UniProt (SwissProt) Secondary ID(s) of Target Chain>
B0FXP0 B2R8T6 Q6FHX9 Q6ZNA8 Q9BV60

> <UniProt (SwissProt) Alternative ID(s) of Target Chain>


> <UniProt (TrEMBL) Submitted Name of Target Chain>


> <UniProt (TrEMBL) Entry Name of Target Chain>


> <UniProt (TrEMBL) Primary ID of Target Chain>


> <UniProt (TrEMBL) Secondary ID(s) of Target Chain>


> <UniProt (TrEMBL) Alternative ID(s) of Target Chain>


$$$$
6520603
  Mrv0541 11251416042D          

 20 21  0  0  0  0            999 V2000
    1.6500    1.6995    0.0000 O   0  0  0  0  0  0  0  0  0  0  0  0
    7.3659   -2.4256    0.0000 O   0  0  0  0  0  0  0  0  0  0  0  0
    5.9370   -2.4256    0.0000 O   0  0  0  0  0  0  0  0  0  0  0  0
    3.7935    2.9371    0.0000 O   0  0  0  0  0  0  0  0  0  0  0  0
    5.2224    0.4620    0.0000 N   0  0  0  0  0  0  0  0  0  0  0  0
    4.5080    0.0495    0.0000 N   0  0  0  0  0  0  0  0  0  0  0  0
    5.9370    0.0495    0.0000 C   0  0  0  0  0  0  0  0  0  0  0  0
    5.9370   -0.7755    0.0000 C   0  0  0  0  0  0  0  0  0  0  0  0
    6.6515   -1.1880    0.0000 C   0  0  0  0  0  0  0  0  0  0  0  0
    3.7935    0.4620    0.0000 C   0  0  0  0  0  0  0  0  0  0  0  0
    6.6515    0.4620    0.0000 C   0  0  0  0  0  0  0  0  0  0  0  0
    7.3659   -0.7755    0.0000 C   0  0  0  0  0  0  0  0  0  0  0  0
    7.3659    0.0495    0.0000 C   0  0  0  0  0  0  0  0  0  0  0  0
    3.7935    1.2870    0.0000 C   0  0  0  0  0  0  0  0  0  0  0  0
    3.0790    1.6995    0.0000 C   0  0  0  0  0  0  0  0  0  0  0  0
    3.0790    0.0495    0.0000 C   0  0  0  0  0  0  0  0  0  0  0  0
    2.3645    1.2870    0.0000 C   0  0  0  0  0  0  0  0  0  0  0  0
    2.3645    0.4620    0.0000 C   0  0  0  0  0  0  0  0  0  0  0  0
    6.6515   -2.0130    0.0000 C   0  0  0  0  0  0  0  0  0  0  0  0
    3.0790    2.5246    0.0000 C   0  0  0  0  0  0  0  0  0  0  0  0
  1 17  1  0  0  0  0
  2 19  1  0  0  0  0
  3 19  2  0  0  0  0
  4 20  2  0  0  0  0
  5  6  2  0  0  0  0
  5  7  1  4  0  0  0
  6 10  1  0  0  0  0
  7  8  2  0  0  0  0
  7 11  1  0  0  0  0
  8  9  1  0  0  0  0
  9 12  2  0  0  0  0
  9 19  1  0  0  0  0
 10 14  2  0  0  0  0
 10 16  1  0  0  0  0
 11 13  2  0  0  0  0
 12 13  1  0  0  0  0
 14 15  1  0  0  0  0
 15 17  2  0  0  0  0
 15 20  1  0  0  0  0
 16 18  2  0  0  0  0
 17 18  1  0  0  0  0
M  END
> <From>
www.bindingDB.org

> <BindingDB Reactant_set_id>
95184

> <Ligand InChI>
InChI=1S/C14H10N2O4/c17-8-10-7-12(4-5-13(10)18)16-15-11-3-1-2-9(6-11)14(19)20/h1-8,18H,(H,19,20)

> <Ligand InChI Key>
VEUVVTPWFGTPGG-UHFFFAOYSA-N

> <BindingDB MonomerID>
51315

> <BindingDB Ligand Name>
3-[(2Z)-2-(3-formyl-4-oxo-1-cyclohexa-2,5-dienylidene)hydrazinyl]benzoic acid::3-[(2Z)-2-(3-formyl-4-oxocyclohexa-2,5-dien-1-ylidene)hydrazinyl]benzoic acid::3-[(2Z)-2-(3-methanoyl-4-oxidanylidene-cyclohexa-2,5-dien-1-ylidene)hydrazinyl]benzoic acid::3-[(E)-(3-formyl-4-hydroxyphenyl)diazenyl]benzoic acid::3-[(N'Z)-N'-(3-formyl-4-keto-cyclohexa-2,5-dien-1-ylidene)hydrazino]benzoic acid::MLS000685416::SMR000312380::cid_6520603

> <Target Name>
DNA repair protein RAD51 homolog 1

> <Target Source Organism According to Curator or DataSource>
Homo sapiens

> <Ki (nM)>


> <IC50 (nM)>
 42500

> <Kd (nM)>


> <EC50 (nM)>


> <kon (M-1-s-1)>


> <koff (s-1)>


> <pH>


> <Temp C>


> <Curation/DataSource>
PubChem

> <Article DOI>


> <BindingDB Entry DOI>
10.7270/Q2VD6WW6

> <PMID>


> <PubChem AID>
aid1436

> <Patent Number>


> <Authors>
PubChem, PC

> <Date of publication>
11/25/2008

> <Date in BindingDB>
5/31/2011

> <Institution>
PCMD

> <Link to Ligand in BindingDB>
http://www.bindingdb.org/bind/chemsearch/marvin/MolStructure.jsp?monomerid=51315

> <Link to Ligand-Target Pair in BindingDB>
http://www.bindingdb.org/jsp/dbsearch/PrimarySearch_ki.jsp?energyterm=kJ/mole&tag=pol&polymerid=4676&target=DNA+repair+protein+RAD51+homolog+1&column=ki&startPg=0&Increment=50&submit=Search

> <Link to Ligand-Target Pair in BindingDB>
http://www.bindingdb.org/jsp/dbsearch/PrimarySearch_ki.jsp?energyterm=kJ/mole&tag=r21&monomerid=51315&enzyme=DNA+repair+protein+RAD51+homolog+1&column=ki&startPg=0&Increment=50&submit=Search

> <Ligand HET ID in PDB>


> <PDB ID(s) for Ligand-Target Complex>


> <PubChem CID of Ligand>
6520603

> <PubChem SID of Ligand>
252631540

> <ChEBI ID of Ligand>


> <ChEMBL ID of Ligand>


> <DrugBank ID of Ligand>


> <IUPHAR_GRAC ID of Ligand>


> <KEGG ID of Ligand>


> <ZINC ID of Ligand>
ZINC00114704

> <Number of Protein Chains in Target (bigger than 1 implies a multichain complex)>
1

> <BindingDB Target Chain Sequence>
MAMQMQLEANADTSVEEESFGPQPISRLEQCGINANDVKKLEEAGFHTVEAVAYAPKKELINIKGISEAKADKILAEAAKLVPMGFTTATEFHQRRSEIIQITTGSKELDKLLQGGIETGSITEMFGEFRTGKTQICHTLAVTCQLPIDRGGGEGKAMYIDTEGTFRPERLLAVAERYGLSGSDVLDNVAYARAFNTDHQTQLLYQASAMMVESRYALLIVDSATALYRTDYSGRGELSARQMHLARFLRMLLRLADEFGVAVVITNQVVAQVDGAAMFAADPKKPIGGNIIAHASTTRLYLRKGRGETRICKIYDSPCLPEAEAMFAINADGVGDAKD

> <PDB ID(s) of Target Chain>
1N0W,5JZC,5NP7,5NWL,8BQ2,8BR2,8BSC

> <UniProt (SwissProt) Recommended Name of Target Chain>
DNA repair protein RAD51 homolog 1

> <UniProt (SwissProt) Entry Name of Target Chain>
RAD51_HUMAN

> <UniProt (SwissProt) Primary ID of Target Chain>
Q06609

> <UniProt (SwissProt) Secondary ID(s) of Target Chain>
B0FXP0 B2R8T6 Q6FHX9 Q6ZNA8 Q9BV60

> <UniProt (SwissProt) Alternative ID(s) of Target Chain>


> <UniProt (TrEMBL) Submitted Name of Target Chain>


> <UniProt (TrEMBL) Entry Name of Target Chain>


> <UniProt (TrEMBL) Primary ID of Target Chain>


> <UniProt (TrEMBL) Secondary ID(s) of Target Chain>


> <UniProt (TrEMBL) Alternative ID(s) of Target Chain>


$$$$
6364517
  Mrv0541 11251415322D          

 26 29  0  0  0  0            999 V2000
    2.6526    5.8726    0.0000 S   0  0  0  0  0  0  0  0  0  0  0  0
    5.2749    4.3586    0.0000 S   0  0  0  0  0  0  0  0  0  0  0  0
    2.6526    7.2004    0.0000 N   0  3  0  0  0  0  0  0  0  0  0  0
    6.4248    5.0225    0.0000 N   0  0  0  0  0  0  0  0  0  0  0  0
    1.8720    6.9490    0.0000 C   0  0  0  0  0  0  0  0  0  0  0  0
    6.5974    4.2207    0.0000 C   0  0  0  0  0  0  0  0  0  0  0  0
    3.1341    6.5365    0.0000 C   0  0  0  0  0  0  0  0  0  0  0  0
    5.6091    5.1075    0.0000 C   0  0  0  0  0  0  0  0  0  0  0  0
    2.9089    7.9846    0.0000 C   0  0  0  0  0  0  0  0  0  0  0  0
    6.9759    5.6365    0.0000 C   0  0  0  0  0  0  0  0  0  0  0  0
    1.8720    6.1239    0.0000 C   0  0  0  0  0  0  0  0  0  0  0  0
    5.8830    3.8082    0.0000 C   0  0  0  0  0  0  0  0  0  0  0  0
    4.3716    5.8220    0.0000 C   0  0  0  0  0  0  0  0  0  0  0  0
    3.9591    6.5365    0.0000 C   0  0  0  0  0  0  0  0  0  0  0  0
    5.1966    5.8220    0.0000 C   0  0  0  0  0  0  0  0  0  0  0  0
    1.1575    7.3615    0.0000 C   0  0  0  0  0  0  0  0  0  0  0  0
    7.3120    3.8082    0.0000 C   0  0  0  0  0  0  0  0  0  0  0  0
    1.1575    5.7114    0.0000 C   0  0  0  0  0  0  0  0  0  0  0  0
    5.8830    2.9832    0.0000 C   0  0  0  0  0  0  0  0  0  0  0  0
    2.3579    8.5987    0.0000 C   0  0  0  0  0  0  0  0  0  0  0  0
    7.7831    5.4664    0.0000 C   0  0  0  0  0  0  0  0  0  0  0  0
    3.9591    5.1075    0.0000 C   0  0  0  0  0  0  0  0  0  0  0  0
    0.4430    6.9490    0.0000 C   0  0  0  0  0  0  0  0  0  0  0  0
    7.3120    2.9832    0.0000 C   0  0  0  0  0  0  0  0  0  0  0  0
    0.4430    6.1239    0.0000 C   0  0  0  0  0  0  0  0  0  0  0  0
    6.5974    2.5707    0.0000 C   0  0  0  0  0  0  0  0  0  0  0  0
  1  7  1  0  0  0  0
  1 11  1  0  0  0  0
  2  8  1  0  0  0  0
  2 12  1  0  0  0  0
  3  5  1  0  0  0  0
  3  7  2  0  0  0  0
  3  9  1  0  0  0  0
  4  6  1  0  0  0  0
  4  8  1  0  0  0  0
  4 10  1  0  0  0  0
  5 11  1  0  0  0  0
  5 16  2  0  0  0  0
  6 12  2  0  0  0  0
  6 17  1  0  0  0  0
  7 14  1  0  0  0  0
  8 15  2  0  0  0  0
  9 20  1  0  0  0  0
 10 21  1  0  0  0  0
 11 18  2  0  0  0  0
 12 19  1  0  0  0  0
 13 14  2  0  0  0  0
 13 15  1  0  0  0  0
 13 22  1  0  0  0  0
 16 23  1  0  0  0  0
 17 24  2  0  0  0  0
 18 25  1  0  0  0  0
 19 26  2  0  0  0  0
 23 25  2  0  0  0  0
 24 26  1  0  0  0  0
M  CHG  1   3   1
M  END
> <From>
www.bindingDB.org

> <BindingDB Reactant_set_id>
95185

> <Ligand InChI>
InChI=1S/C22H23N2S2/c1-4-23-17-10-6-8-12-19(17)25-21(23)14-16(3)15-22-24(5-2)18-11-7-9-13-20(18)26-22/h6-15H,4-5H2,1-3H3/q+1

> <Ligand InChI Key>
DGBHUSPLAMIWPQ-UHFFFAOYSA-N

> <BindingDB MonomerID>
32329

> <BindingDB Ligand Name>
(2Z)-3-ethyl-2-[(E)-3-(3-ethyl-1,3-benzothiazol-3-ium-2-yl)-2-methyl-prop-2-enylidene]-1,3-benzothiazole;iodide::(2Z)-3-ethyl-2-[(E)-3-(3-ethyl-1,3-benzothiazol-3-ium-2-yl)-2-methylprop-2-enylidene]-1,3-benzothiazole;iodide::Cyanines, 1::MLS001018610::SMR000354813::cid_6364517

> <Target Name>
DNA repair protein RAD51 homolog 1

> <Target Source Organism According to Curator or DataSource>
Homo sapiens

> <Ki (nM)>


> <IC50 (nM)>
 42500

> <Kd (nM)>


> <EC50 (nM)>


> <kon (M-1-s-1)>


> <koff (s-1)>


> <pH>


> <Temp C>


> <Curation/DataSource>
PubChem

> <Article DOI>


> <BindingDB Entry DOI>
10.7270/Q2VD6WW6

> <PMID>


> <PubChem AID>
aid1436

> <Patent Number>


> <Authors>
PubChem, PC

> <Date of publication>
11/25/2008

> <Date in BindingDB>
5/31/2011

> <Institution>
PCMD

> <Link to Ligand in BindingDB>
http://www.bindingdb.org/bind/chemsearch/marvin/MolStructure.jsp?monomerid=32329

> <Link to Ligand-Target Pair in BindingDB>
http://www.bindingdb.org/jsp/dbsearch/PrimarySearch_ki.jsp?energyterm=kJ/mole&tag=pol&polymerid=4676&target=DNA+repair+protein+RAD51+homolog+1&column=ki&startPg=0&Increment=50&submit=Search

> <Link to Ligand-Target Pair in BindingDB>
http://www.bindingdb.org/jsp/dbsearch/PrimarySearch_ki.jsp?energyterm=kJ/mole&tag=r21&monomerid=32329&enzyme=DNA+repair+protein+RAD51+homolog+1&column=ki&startPg=0&Increment=50&submit=Search

> <Ligand HET ID in PDB>


> <PDB ID(s) for Ligand-Target Complex>


> <PubChem CID of Ligand>
5474842

> <PubChem SID of Ligand>
252615768

> <ChEBI ID of Ligand>


> <ChEMBL ID of Ligand>


> <DrugBank ID of Ligand>


> <IUPHAR_GRAC ID of Ligand>


> <KEGG ID of Ligand>


> <ZINC ID of Ligand>
ZINC01627076

> <Number of Protein Chains in Target (bigger than 1 implies a multichain complex)>
1

> <BindingDB Target Chain Sequence>
MAMQMQLEANADTSVEEESFGPQPISRLEQCGINANDVKKLEEAGFHTVEAVAYAPKKELINIKGISEAKADKILAEAAKLVPMGFTTATEFHQRRSEIIQITTGSKELDKLLQGGIETGSITEMFGEFRTGKTQICHTLAVTCQLPIDRGGGEGKAMYIDTEGTFRPERLLAVAERYGLSGSDVLDNVAYARAFNTDHQTQLLYQASAMMVESRYALLIVDSATALYRTDYSGRGELSARQMHLARFLRMLLRLADEFGVAVVITNQVVAQVDGAAMFAADPKKPIGGNIIAHASTTRLYLRKGRGETRICKIYDSPCLPEAEAMFAINADGVGDAKD

> <PDB ID(s) of Target Chain>
1N0W,5JZC,5NP7,5NWL,8BQ2,8BR2,8BSC

> <UniProt (SwissProt) Recommended Name of Target Chain>
DNA repair protein RAD51 homolog 1

> <UniProt (SwissProt) Entry Name of Target Chain>
RAD51_HUMAN

> <UniProt (SwissProt) Primary ID of Target Chain>
Q06609

> <UniProt (SwissProt) Secondary ID(s) of Target Chain>
B0FXP0 B2R8T6 Q6FHX9 Q6ZNA8 Q9BV60

> <UniProt (SwissProt) Alternative ID(s) of Target Chain>


> <UniProt (TrEMBL) Submitted Name of Target Chain>


> <UniProt (TrEMBL) Entry Name of Target Chain>


> <UniProt (TrEMBL) Primary ID of Target Chain>


> <UniProt (TrEMBL) Secondary ID(s) of Target Chain>


> <UniProt (TrEMBL) Alternative ID(s) of Target Chain>


$$$$
5320418
  Mrv0541 11251415302D          

 28 31  0  0  1  0            999 V2000
    5.5417    0.1377    0.0000 O   0  0  0  0  0  0  0  0  0  0  0  0
    5.2809   -2.3143    0.0000 O   0  0  0  0  0  0  0  0  0  0  0  0
    3.9287    0.9144    0.0000 O   0  0  0  0  0  0  0  0  0  0  0  0
    6.3172   -1.3078    0.0000 O   0  0  0  0  0  0  0  0  0  0  0  0
    2.8089   -1.5935    0.0000 O   0  0  0  0  0  0  0  0  0  0  0  0
    2.0360   -0.4064    0.0000 O   0  0  0  0  0  0  0  0  0  0  0  0
    3.9746   -2.9316    0.0000 O   0  0  0  0  0  0  0  0  0  0  0  0
    4.0798    2.2551    0.0000 O   0  0  0  0  0  0  0  0  0  0  0  0
    7.6389    1.9113    0.0000 O   0  0  0  0  0  0  0  0  0  0  0  0
    6.7313   -0.3414    0.0000 O   0  0  0  0  0  0  0  0  0  0  0  0
    4.8986   -1.0345    0.0000 C   0  0  0  0  0  0  0  0  0  0  0  0
    4.8239   -0.2080    0.0000 C   0  0  0  0  0  0  0  0  0  0  0  0
    4.2165   -1.5072    0.0000 C   0  0  0  0  0  0  0  0  0  0  0  0
    5.5538   -1.5358    0.0000 C   0  0  0  0  0  0  0  0  0  0  0  0
    4.1060    0.1377    0.0000 C   0  0  0  0  0  0  0  0  0  0  0  0
    3.4132   -0.3192    0.0000 C   0  0  0  0  0  0  0  0  0  0  0  0
    3.4689   -1.1472    0.0000 C   0  0  0  0  0  0  0  0  0  0  0  0
    5.7190    0.9144    0.0000 C   0  0  0  0  0  0  0  0  0  0  0  0
    4.4560   -2.2967    0.0000 C   0  0  0  0  0  0  0  0  0  0  0  0
    5.2222    1.5374    0.0000 C   0  0  0  0  0  0  0  0  0  0  0  0
    2.6995    0.0348    0.0000 C   0  0  0  0  0  0  0  0  0  0  0  0
    5.5134    2.3145    0.0000 C   0  0  0  0  0  0  0  0  0  0  0  0
    6.5414    1.0255    0.0000 C   0  0  0  0  0  0  0  0  0  0  0  0
    4.4255    1.5374    0.0000 C   0  0  0  0  0  0  0  0  0  0  0  0
    6.8506    1.7957    0.0000 C   0  0  0  0  0  0  0  0  0  0  0  0
    6.3331    2.4444    0.0000 C   0  0  0  0  0  0  0  0  0  0  0  0
    5.0096    2.9316    0.0000 C   0  0  0  0  0  0  0  0  0  0  0  0
    7.0309    0.3968    0.0000 C   0  0  0  0  0  0  0  0  0  0  0  0
  1 12  1  0  0  0  0
  1 18  1  0  0  0  0
  2 14  1  0  0  0  0
  2 19  1  0  0  0  0
  3 15  1  0  0  0  0
  3 24  1  0  0  0  0
  4 14  1  0  0  0  0
  5 17  1  0  0  0  0
  6 21  1  0  0  0  0
  7 19  2  0  0  0  0
  8 24  2  0  0  0  0
  9 25  1  0  0  0  0
 10 28  2  0  0  0  0
 11 12  2  0  0  0  0
 11 13  1  0  0  0  0
 11 14  1  0  0  0  0
 12 15  1  0  0  0  0
 13 17  2  0  0  0  0
 13 19  1  0  0  0  0
 15 16  2  0  0  0  0
 16 17  1  0  0  0  0
 16 21  1  0  0  0  0
 18 20  2  0  0  0  0
 18 23  1  0  0  0  0
 20 22  1  0  0  0  0
 20 24  1  0  0  0  0
 22 26  2  0  0  0  0
 22 27  1  0  0  0  0
 23 25  2  0  0  0  0
 23 28  1  0  0  0  0
 25 26  1  0  0  0  0
M  END
> <From>
www.bindingDB.org

> <BindingDB Reactant_set_id>
95186

> <Ligand InChI>
InChI=1S/C18H12O10/c1-5-2-8(21)6(3-19)13-9(5)16(23)27-14-7(4-20)12(22)10-11(15(14)26-13)18(25)28-17(10)24/h2-3,18,20-22,25H,4H2,1H3

> <Ligand InChI Key>
QQTKVXCQLZIJPP-UHFFFAOYSA-N

> <BindingDB MonomerID>
29673

> <BindingDB Ligand Name>
1,4,10-Trihydroxy-5-hydroxymethyl-8-methyl-3,7-dioxo-1,3-dihydro-7H-benzo[e]furo[3'''',4'''':3,4]benzo[b][1,4]dioxepine-11-carbaldehyde::CHEMBL172439::NSC-87509::Salazinic acid, 2::cid_5320418

> <Target Name>
DNA repair protein RAD51 homolog 1

> <Target Source Organism According to Curator or DataSource>
Homo sapiens

> <Ki (nM)>


> <IC50 (nM)>
 85000

> <Kd (nM)>


> <EC50 (nM)>


> <kon (M-1-s-1)>


> <koff (s-1)>


> <pH>


> <Temp C>


> <Curation/DataSource>
PubChem

> <Article DOI>


> <BindingDB Entry DOI>
10.7270/Q2VD6WW6

> <PMID>


> <PubChem AID>
aid1436

> <Patent Number>


> <Authors>
PubChem, PC

> <Date of publication>
11/25/2008

> <Date in BindingDB>
5/31/2011

> <Institution>
PCMD

> <Link to Ligand in BindingDB>
http://www.bindingdb.org/bind/chemsearch/marvin/MolStructure.jsp?monomerid=29673

> <Link to Ligand-Target Pair in BindingDB>
http://www.bindingdb.org/jsp/dbsearch/PrimarySearch_ki.jsp?energyterm=kJ/mole&tag=pol&polymerid=4676&target=DNA+repair+protein+RAD51+homolog+1&column=ki&startPg=0&Increment=50&submit=Search

> <Link to Ligand-Target Pair in BindingDB>
http://www.bindingdb.org/jsp/dbsearch/PrimarySearch_ki.jsp?energyterm=kJ/mole&tag=r21&monomerid=29673&enzyme=DNA+repair+protein+RAD51+homolog+1&column=ki&startPg=0&Increment=50&submit=Search

> <Ligand HET ID in PDB>


> <PDB ID(s) for Ligand-Target Complex>


> <PubChem CID of Ligand>
5320418

> <PubChem SID of Ligand>
252614882

> <ChEBI ID of Ligand>


> <ChEMBL ID of Ligand>
CHEMBL172439

> <DrugBank ID of Ligand>


> <IUPHAR_GRAC ID of Ligand>


> <KEGG ID of Ligand>


> <ZINC ID of Ligand>
ZINC18028709

> <Number of Protein Chains in Target (bigger than 1 implies a multichain complex)>
1

> <BindingDB Target Chain Sequence>
MAMQMQLEANADTSVEEESFGPQPISRLEQCGINANDVKKLEEAGFHTVEAVAYAPKKELINIKGISEAKADKILAEAAKLVPMGFTTATEFHQRRSEIIQITTGSKELDKLLQGGIETGSITEMFGEFRTGKTQICHTLAVTCQLPIDRGGGEGKAMYIDTEGTFRPERLLAVAERYGLSGSDVLDNVAYARAFNTDHQTQLLYQASAMMVESRYALLIVDSATALYRTDYSGRGELSARQMHLARFLRMLLRLADEFGVAVVITNQVVAQVDGAAMFAADPKKPIGGNIIAHASTTRLYLRKGRGETRICKIYDSPCLPEAEAMFAINADGVGDAKD

> <PDB ID(s) of Target Chain>
1N0W,5JZC,5NP7,5NWL,8BQ2,8BR2,8BSC

> <UniProt (SwissProt) Recommended Name of Target Chain>
DNA repair protein RAD51 homolog 1

> <UniProt (SwissProt) Entry Name of Target Chain>
RAD51_HUMAN

> <UniProt (SwissProt) Primary ID of Target Chain>
Q06609

> <UniProt (SwissProt) Secondary ID(s) of Target Chain>
B0FXP0 B2R8T6 Q6FHX9 Q6ZNA8 Q9BV60

> <UniProt (SwissProt) Alternative ID(s) of Target Chain>


> <UniProt (TrEMBL) Submitted Name of Target Chain>


> <UniProt (TrEMBL) Entry Name of Target Chain>


> <UniProt (TrEMBL) Primary ID of Target Chain>


> <UniProt (TrEMBL) Secondary ID(s) of Target Chain>


> <UniProt (TrEMBL) Alternative ID(s) of Target Chain>


$$$$

  Mrv0541 11231401252D          

 28 31  0  0  0  0            999 V2000
    5.9200   -5.7649    0.0000 C   0  0  0  0  0  0  0  0  0  0  0  0
    5.1211   -5.9718    0.0000 C   0  0  0  0  0  0  0  0  0  0  0  0
    4.5406   -5.3855    0.0000 C   0  0  0  0  0  0  0  0  0  0  0  0
    6.3626   -6.4546    0.0000 C   0  0  0  0  0  0  0  0  0  0  0  0
    3.0578   -5.3280    0.0000 C   0  0  0  0  0  0  0  0  0  0  0  0
    4.7475   -4.6096    0.0000 C   0  0  0  0  0  0  0  0  0  0  0  0
    2.9026   -4.5061    0.0000 C   0  0  0  0  0  0  0  0  0  0  0  0
    3.4371   -3.9199    0.0000 C   0  0  0  0  0  0  0  0  0  0  0  0
    4.2647   -3.9486    0.0000 O   0  0  0  0  0  0  0  0  0  0  0  0
    6.1270   -4.9717    0.0000 C   0  0  0  0  0  0  0  0  0  0  0  0
    3.7820   -5.7131    0.0000 O   0  0  0  0  0  0  0  0  0  0  0  0
    5.0752   -6.7994    0.0000 C   0  0  0  0  0  0  0  0  0  0  0  0
    5.8338   -7.0926    0.0000 O   0  0  0  0  0  0  0  0  0  0  0  0
    5.5407   -4.3854    0.0000 C   0  0  0  0  0  0  0  0  0  0  0  0
    2.4312   -5.8625    0.0000 C   0  0  0  0  0  0  0  0  0  0  0  0
    2.1266   -4.2303    0.0000 C   0  0  0  0  0  0  0  0  0  0  0  0
    1.6611   -5.5866    0.0000 C   0  0  0  0  0  0  0  0  0  0  0  0
    1.5001   -4.7648    0.0000 C   0  0  0  0  0  0  0  0  0  0  0  0
    7.1902   -6.5063    0.0000 O   0  0  0  0  0  0  0  0  0  0  0  0
    3.0864   -3.1440    0.0000 O   0  0  0  0  0  0  0  0  0  0  0  0
    2.5692   -6.6902    0.0000 C   0  0  0  0  0  0  0  0  0  0  0  0
    6.9316   -4.7475    0.0000 O   0  0  0  0  0  0  0  0  0  0  0  0
    4.3854   -7.2592    0.0000 O   0  0  0  0  0  0  0  0  0  0  0  0
    3.3336   -6.9833    0.0000 O   0  0  0  0  0  0  0  0  0  0  0  0
    1.0346   -6.1270    0.0000 O   0  0  0  0  0  0  0  0  0  0  0  0
    5.7476   -3.5750    0.0000 C   0  0  0  0  0  0  0  0  0  0  0  0
    1.9829   -3.4141    0.0000 C   0  0  0  0  0  0  0  0  0  0  0  0
    1.1955   -6.9374    0.0000 C   0  0  0  0  0  0  0  0  0  0  0  0
  2  1  2  0  0  0  0
  3  2  1  0  0  0  0
  4  1  1  0  0  0  0
  5 11  1  0  0  0  0
  6 14  1  0  0  0  0
  7  5  2  0  0  0  0
  8  9  1  0  0  0  0
  9  6  1  0  0  0  0
 10  1  1  0  0  0  0
 11  3  1  0  0  0  0
 12  2  1  0  0  0  0
 13  4  1  0  0  0  0
 14 10  2  0  0  0  0
 15  5  1  0  0  0  0
 16  7  1  0  0  0  0
 17 15  2  0  0  0  0
 18 17  1  0  0  0  0
 19  4  2  0  0  0  0
 20  8  2  0  0  0  0
 21 15  1  0  0  0  0
 22 10  1  0  0  0  0
 23 12  1  0  0  0  0
 24 21  2  0  0  0  0
 25 17  1  0  0  0  0
 26 14  1  0  0  0  0
 27 16  1  0  0  0  0
 28 25  1  0  0  0  0
 12 13  1  0  0  0  0
  6  3  2  0  0  0  0
  7  8  1  0  0  0  0
 16 18  2  0  0  0  0
M  END
> <From>
www.bindingDB.org

> <BindingDB Reactant_set_id>
95187

> <Ligand InChI>
InChI=1S/C19H14O9/c1-6-4-9(25-3)8(5-20)15-10(6)17(22)27-14-7(2)13(21)11-12(16(14)26-15)19(24)28-18(11)23/h4-5,19,21,24H,1-3H3

> <Ligand InChI Key>
SKCUFZLDTAYNBZ-UHFFFAOYSA-N

> <BindingDB MonomerID>
50056922

> <BindingDB Ligand Name>
1,4-Dihydroxy-10-methoxy-5,8-dimethyl-3,7-dioxo-1,3-dihydro-7H-benzo[e]furo[3',4':3,4]benzo[b][1,4]dioxepine-11-carbaldehyde::CHEMBL173530::NSC-87511::Stictic acid::Stictic acid (StA), 1::cid_73677

> <Target Name>
DNA repair protein RAD51 homolog 1

> <Target Source Organism According to Curator or DataSource>
Homo sapiens

> <Ki (nM)>


> <IC50 (nM)>
 85000

> <Kd (nM)>


> <EC50 (nM)>


> <kon (M-1-s-1)>


> <koff (s-1)>


> <pH>


> <Temp C>


> <Curation/DataSource>
PubChem

> <Article DOI>


> <BindingDB Entry DOI>
10.7270/Q2VD6WW6

> <PMID>


> <PubChem AID>
aid1436

> <Patent Number>


> <Authors>
PubChem, PC

> <Date of publication>
11/25/2008

> <Date in BindingDB>
5/31/2011

> <Institution>
PCMD

> <Link to Ligand in BindingDB>
http://www.bindingdb.org/bind/chemsearch/marvin/MolStructure.jsp?monomerid=50056922

> <Link to Ligand-Target Pair in BindingDB>
http://www.bindingdb.org/jsp/dbsearch/PrimarySearch_ki.jsp?energyterm=kJ/mole&tag=pol&polymerid=4676&target=DNA+repair+protein+RAD51+homolog+1&column=ki&startPg=0&Increment=50&submit=Search

> <Link to Ligand-Target Pair in BindingDB>
http://www.bindingdb.org/jsp/dbsearch/PrimarySearch_ki.jsp?energyterm=kJ/mole&tag=r21&monomerid=50056922&enzyme=DNA+repair+protein+RAD51+homolog+1&column=ki&startPg=0&Increment=50&submit=Search

> <Ligand HET ID in PDB>


> <PDB ID(s) for Ligand-Target Complex>


> <PubChem CID of Ligand>
73677

> <PubChem SID of Ligand>
103953052

> <ChEBI ID of Ligand>


> <ChEMBL ID of Ligand>
CHEMBL173530

> <DrugBank ID of Ligand>


> <IUPHAR_GRAC ID of Ligand>


> <KEGG ID of Ligand>


> <ZINC ID of Ligand>
ZINC02004083

> <Number of Protein Chains in Target (bigger than 1 implies a multichain complex)>
1

> <BindingDB Target Chain Sequence>
MAMQMQLEANADTSVEEESFGPQPISRLEQCGINANDVKKLEEAGFHTVEAVAYAPKKELINIKGISEAKADKILAEAAKLVPMGFTTATEFHQRRSEIIQITTGSKELDKLLQGGIETGSITEMFGEFRTGKTQICHTLAVTCQLPIDRGGGEGKAMYIDTEGTFRPERLLAVAERYGLSGSDVLDNVAYARAFNTDHQTQLLYQASAMMVESRYALLIVDSATALYRTDYSGRGELSARQMHLARFLRMLLRLADEFGVAVVITNQVVAQVDGAAMFAADPKKPIGGNIIAHASTTRLYLRKGRGETRICKIYDSPCLPEAEAMFAINADGVGDAKD

> <PDB ID(s) of Target Chain>
1N0W,5JZC,5NP7,5NWL,8BQ2,8BR2,8BSC

> <UniProt (SwissProt) Recommended Name of Target Chain>
DNA repair protein RAD51 homolog 1

> <UniProt (SwissProt) Entry Name of Target Chain>
RAD51_HUMAN

> <UniProt (SwissProt) Primary ID of Target Chain>
Q06609

> <UniProt (SwissProt) Secondary ID(s) of Target Chain>
B0FXP0 B2R8T6 Q6FHX9 Q6ZNA8 Q9BV60

> <UniProt (SwissProt) Alternative ID(s) of Target Chain>


> <UniProt (TrEMBL) Submitted Name of Target Chain>


> <UniProt (TrEMBL) Entry Name of Target Chain>


> <UniProt (TrEMBL) Primary ID of Target Chain>


> <UniProt (TrEMBL) Secondary ID(s) of Target Chain>


> <UniProt (TrEMBL) Alternative ID(s) of Target Chain>


$$$$
 
  Mrv0541 11221400272D          

 21 24  0  0  0  0            999 V2000
   14.5204  -25.1958    0.0000 N   0  0  0  0  0  0  0  0  0  0  0  0
   13.8496  -24.7114    0.0000 C   0  0  0  0  0  0  0  0  0  0  0  0
   14.1099  -23.9262    0.0000 C   0  0  0  0  0  0  0  0  0  0  0  0
   13.5579  -23.3117    0.0000 C   0  0  0  0  0  0  0  0  0  0  0  0
   12.7496  -23.4812    0.0000 C   0  0  0  0  0  0  0  0  0  0  0  0
   12.4963  -24.2708    0.0000 C   0  0  0  0  0  0  0  0  0  0  0  0
   13.0459  -24.8819    0.0000 C   0  0  0  0  0  0  0  0  0  0  0  0
   14.9365  -23.9238    0.0000 C   0  0  0  0  0  0  0  0  0  0  0  0
   15.1872  -24.7095    0.0000 C   0  0  0  0  0  0  0  0  0  0  0  0
   15.9919  -24.8816    0.0000 C   0  0  0  0  0  0  0  0  0  0  0  0
   15.4828  -23.3132    0.0000 C   0  0  0  0  0  0  0  0  0  0  0  0
   16.2869  -23.4816    0.0000 C   0  0  0  0  0  0  0  0  0  0  0  0
   16.5439  -24.2681    0.0000 C   0  0  0  0  0  0  0  0  0  0  0  0
   17.3505  -24.4388    0.0000 C   0  0  0  0  0  0  0  0  0  0  0  0
   17.9007  -23.8282    0.0000 C   0  0  0  0  0  0  0  0  0  0  0  0
   17.6429  -23.0401    0.0000 N   0  0  0  0  0  0  0  0  0  0  0  0
   16.8371  -22.8688    0.0000 C   0  0  0  0  0  0  0  0  0  0  0  0
   15.2276  -22.5257    0.0000 C   0  0  0  0  0  0  0  0  0  0  0  0
   16.2459  -25.6695    0.0000 C   0  0  0  0  0  0  0  0  0  0  0  0
   12.1981  -22.8693    0.0000 O   0  0  0  0  0  0  0  0  0  0  0  0
   12.4522  -22.0857    0.0000 C   0  0  0  0  0  0  0  0  0  0  0  0
  9 10  1  0  0  0  0
 10 13  2  0  0  0  0
  1  9  1  0  0  0  0
 12 11  2  0  0  0  0
 11  8  1  0  0  0  0
  4  5  2  0  0  0  0
  8  3  1  0  0  0  0
 12 13  1  0  0  0  0
  5  6  1  0  0  0  0
 13 14  1  0  0  0  0
 14 15  2  0  0  0  0
  6  7  2  0  0  0  0
 15 16  1  0  0  0  0
  7  2  1  0  0  0  0
 16 17  2  0  0  0  0
 17 12  1  0  0  0  0
  2  3  2  0  0  0  0
 11 18  1  0  0  0  0
  2  1  1  0  0  0  0
 10 19  1  0  0  0  0
  8  9  2  0  0  0  0
  5 20  1  0  0  0  0
  3  4  1  0  0  0  0
 20 21  1  0  0  0  0
M  END
> <From>
www.bindingDB.org

> <BindingDB Reactant_set_id>
95188

> <Ligand InChI>
InChI=1S/C18H16N2O/c1-10-15-9-19-7-6-13(15)11(2)18-17(10)14-8-12(21-3)4-5-16(14)20-18/h4-9,20H,1-3H3

> <Ligand InChI Key>
BKRMCDAOAQWNTG-UHFFFAOYSA-N

> <BindingDB MonomerID>
50174412

> <BindingDB Ligand Name>
9-Methoxy-5,11-dimethyl-6H-pyrido[4,3-b]carbazole::9-Methoxy-5,11-dimethyl-6H-pyrido[4,3-b]carbazole9-OCH3-E::9-methoxy ellipticine::9-methoxyellipticine::CHEMBL19954::O-methylellipticine::cid_72512

> <Target Name>
DNA repair protein RAD51 homolog 1

> <Target Source Organism According to Curator or DataSource>
Homo sapiens

> <Ki (nM)>


> <IC50 (nM)>
 26820

> <Kd (nM)>


> <EC50 (nM)>


> <kon (M-1-s-1)>


> <koff (s-1)>


> <pH>


> <Temp C>


> <Curation/DataSource>
PubChem

> <Article DOI>


> <BindingDB Entry DOI>
10.7270/Q2VD6WW6

> <PMID>


> <PubChem AID>
aid1436

> <Patent Number>


> <Authors>
PubChem, PC

> <Date of publication>
11/25/2008

> <Date in BindingDB>
5/31/2011

> <Institution>
PCMD

> <Link to Ligand in BindingDB>
http://www.bindingdb.org/bind/chemsearch/marvin/MolStructure.jsp?monomerid=50174412

> <Link to Ligand-Target Pair in BindingDB>
http://www.bindingdb.org/jsp/dbsearch/PrimarySearch_ki.jsp?energyterm=kJ/mole&tag=pol&polymerid=4676&target=DNA+repair+protein+RAD51+homolog+1&column=ki&startPg=0&Increment=50&submit=Search

> <Link to Ligand-Target Pair in BindingDB>
http://www.bindingdb.org/jsp/dbsearch/PrimarySearch_ki.jsp?energyterm=kJ/mole&tag=r21&monomerid=50174412&enzyme=DNA+repair+protein+RAD51+homolog+1&column=ki&startPg=0&Increment=50&submit=Search

> <Ligand HET ID in PDB>


> <PDB ID(s) for Ligand-Target Complex>


> <PubChem CID of Ligand>
72512

> <PubChem SID of Ligand>
104060230

> <ChEBI ID of Ligand>


> <ChEMBL ID of Ligand>
CHEMBL19954

> <DrugBank ID of Ligand>


> <IUPHAR_GRAC ID of Ligand>


> <KEGG ID of Ligand>


> <ZINC ID of Ligand>
ZINC37866067

> <Number of Protein Chains in Target (bigger than 1 implies a multichain complex)>
1

> <BindingDB Target Chain Sequence>
MAMQMQLEANADTSVEEESFGPQPISRLEQCGINANDVKKLEEAGFHTVEAVAYAPKKELINIKGISEAKADKILAEAAKLVPMGFTTATEFHQRRSEIIQITTGSKELDKLLQGGIETGSITEMFGEFRTGKTQICHTLAVTCQLPIDRGGGEGKAMYIDTEGTFRPERLLAVAERYGLSGSDVLDNVAYARAFNTDHQTQLLYQASAMMVESRYALLIVDSATALYRTDYSGRGELSARQMHLARFLRMLLRLADEFGVAVVITNQVVAQVDGAAMFAADPKKPIGGNIIAHASTTRLYLRKGRGETRICKIYDSPCLPEAEAMFAINADGVGDAKD

> <PDB ID(s) of Target Chain>
1N0W,5JZC,5NP7,5NWL,8BQ2,8BR2,8BSC

> <UniProt (SwissProt) Recommended Name of Target Chain>
DNA repair protein RAD51 homolog 1

> <UniProt (SwissProt) Entry Name of Target Chain>
RAD51_HUMAN

> <UniProt (SwissProt) Primary ID of Target Chain>
Q06609

> <UniProt (SwissProt) Secondary ID(s) of Target Chain>
B0FXP0 B2R8T6 Q6FHX9 Q6ZNA8 Q9BV60

> <UniProt (SwissProt) Alternative ID(s) of Target Chain>


> <UniProt (TrEMBL) Submitted Name of Target Chain>


> <UniProt (TrEMBL) Entry Name of Target Chain>


> <UniProt (TrEMBL) Primary ID of Target Chain>


> <UniProt (TrEMBL) Secondary ID(s) of Target Chain>


> <UniProt (TrEMBL) Alternative ID(s) of Target Chain>


$$$$
65558
  Mrv0541 11251415482D          

 35 39  0  0  0  0            999 V2000
    1.6500    0.8250    0.0000 Cl  0  0  0  0  0  0  0  0  0  0  0  0
    2.3644    2.0625    0.0000 O   0  0  0  0  0  0  0  0  0  0  0  0
    2.3644   -2.0625    0.0000 O   0  0  0  0  0  0  0  0  0  0  0  0
    3.1260    5.8474    0.0000 N   0  0  0  0  0  0  0  0  0  0  0  0
    4.4609   -5.8474    0.0000 N   0  0  0  0  0  0  0  0  0  0  0  0
    4.4609    5.8474    0.0000 N   0  0  0  0  0  0  0  0  0  0  0  0
    3.1260   -5.8474    0.0000 N   0  0  0  0  0  0  0  0  0  0  0  0
    3.7934    2.0625    0.0000 N   0  0  0  0  0  0  0  0  0  0  0  0
    3.7934   -2.0625    0.0000 N   0  0  0  0  0  0  0  0  0  0  0  0
    3.3809    6.6320    0.0000 C   0  0  0  0  0  0  0  0  0  0  0  0
    4.2059   -6.6320    0.0000 C   0  0  0  0  0  0  0  0  0  0  0  0
    3.7934    5.3625    0.0000 C   0  0  0  0  0  0  0  0  0  0  0  0
    3.7934   -5.3625    0.0000 C   0  0  0  0  0  0  0  0  0  0  0  0
    4.2059    6.6320    0.0000 C   0  0  0  0  0  0  0  0  0  0  0  0
    3.3809   -6.6320    0.0000 C   0  0  0  0  0  0  0  0  0  0  0  0
    3.7934    4.5375    0.0000 C   0  0  0  0  0  0  0  0  0  0  0  0
    3.7934   -4.5375    0.0000 C   0  0  0  0  0  0  0  0  0  0  0  0
    4.5079    4.1250    0.0000 C   0  0  0  0  0  0  0  0  0  0  0  0
    3.0789    4.1250    0.0000 C   0  0  0  0  0  0  0  0  0  0  0  0
    3.0789   -4.1250    0.0000 C   0  0  0  0  0  0  0  0  0  0  0  0
    4.5079   -4.1250    0.0000 C   0  0  0  0  0  0  0  0  0  0  0  0
    3.7934    2.8875    0.0000 C   0  0  0  0  0  0  0  0  0  0  0  0
    3.7934   -2.8875    0.0000 C   0  0  0  0  0  0  0  0  0  0  0  0
    4.5079    3.3000    0.0000 C   0  0  0  0  0  0  0  0  0  0  0  0
    3.0789    3.3000    0.0000 C   0  0  0  0  0  0  0  0  0  0  0  0
    3.0789   -3.3000    0.0000 C   0  0  0  0  0  0  0  0  0  0  0  0
    4.5079   -3.3000    0.0000 C   0  0  0  0  0  0  0  0  0  0  0  0
    3.0789    0.8250    0.0000 C   0  0  0  0  0  0  0  0  0  0  0  0
    3.0789   -0.8250    0.0000 C   0  0  0  0  0  0  0  0  0  0  0  0
    3.0789    1.6500    0.0000 C   0  0  0  0  0  0  0  0  0  0  0  0
    3.0789   -1.6500    0.0000 C   0  0  0  0  0  0  0  0  0  0  0  0
    2.3644    0.4125    0.0000 C   0  0  0  0  0  0  0  0  0  0  0  0
    3.7934    0.4125    0.0000 C   0  0  0  0  0  0  0  0  0  0  0  0
    2.3644   -0.4125    0.0000 C   0  0  0  0  0  0  0  0  0  0  0  0
    3.7934   -0.4125    0.0000 C   0  0  0  0  0  0  0  0  0  0  0  0
  1 32  1  0  0  0  0
  2 30  2  0  0  0  0
  3 31  2  0  0  0  0
  4 10  1  0  0  0  0
  4 12  1  0  0  0  0
  5 11  1  0  0  0  0
  5 13  1  0  0  0  0
  6 12  2  0  0  0  0
  6 14  1  0  0  0  0
  7 13  2  0  0  0  0
  7 15  1  0  0  0  0
  8 22  1  0  0  0  0
  8 30  1  0  0  0  0
  9 23  1  0  0  0  0
  9 31  1  0  0  0  0
 10 14  1  0  0  0  0
 11 15  1  0  0  0  0
 12 16  1  0  0  0  0
 13 17  1  0  0  0  0
 16 18  2  0  0  0  0
 16 19  1  0  0  0  0
 17 20  2  0  0  0  0
 17 21  1  0  0  0  0
 18 24  1  0  0  0  0
 19 25  2  0  0  0  0
 20 26  1  0  0  0  0
 21 27  2  0  0  0  0
 22 24  2  0  0  0  0
 22 25  1  0  0  0  0
 23 26  2  0  0  0  0
 23 27  1  0  0  0  0
 28 30  1  0  0  0  0
 28 32  2  0  0  0  0
 28 33  1  0  0  0  0
 29 31  1  0  0  0  0
 29 34  2  0  0  0  0
 29 35  1  0  0  0  0
 32 34  1  0  0  0  0
 33 35  2  0  0  0  0
M  END
> <From>
www.bindingDB.org

> <BindingDB Reactant_set_id>
95189

> <Ligand InChI>
InChI=1S/C26H23ClN6O2/c27-22-15-18(25(34)32-19-6-1-16(2-7-19)23-28-11-12-29-23)5-10-21(22)26(35)33-20-8-3-17(4-9-20)24-30-13-14-31-24/h1-10,15H,11-14H2,(H,28,29)(H,30,31)(H,32,34)(H,33,35)

> <Ligand InChI Key>
UJQGBYRKCZQJJS-UHFFFAOYSA-N

> <BindingDB MonomerID>
43864

> <BindingDB Ligand Name>
2-chloranyl-N1,N4-bis[4-(4,5-dihydro-1H-imidazol-2-yl)phenyl]benzene-1,4-dicarboxamide::2-chloro-1-N,4-N-bis[4-(4,5-dihydro-1H-imidazol-2-yl)phenyl]benzene-1,4-dicarboxamide::2-chloro-N,N''''-bis[4-(2-imidazolin-2-yl)phenyl]terephthalamide::2-chloro-N,N''-bis[4-(2-imidazolin-2-yl)phenyl]terephthalamide::2-chloro-N,N'-bis[4-(2-imidazolin-2-yl)phenyl]terephthalamide::2-chloro-N1,N4-bis[4-(4,5-dihydro-1H-imidazol-2-yl)phenyl]benzene-1,4-dicarboxamide::Glycopeptide, 3b::HR 2198::MLS000737368::SMR000528281::cid_65558

> <Target Name>
DNA repair protein RAD51 homolog 1

> <Target Source Organism According to Curator or DataSource>
Homo sapiens

> <Ki (nM)>


> <IC50 (nM)>
 16420

> <Kd (nM)>


> <EC50 (nM)>


> <kon (M-1-s-1)>


> <koff (s-1)>


> <pH>


> <Temp C>


> <Curation/DataSource>
PubChem

> <Article DOI>


> <BindingDB Entry DOI>
10.7270/Q2VD6WW6

> <PMID>


> <PubChem AID>
aid1436

> <Patent Number>


> <Authors>
PubChem, PC

> <Date of publication>
11/25/2008

> <Date in BindingDB>
5/31/2011

> <Institution>
PCMD

> <Link to Ligand in BindingDB>
http://www.bindingdb.org/bind/chemsearch/marvin/MolStructure.jsp?monomerid=43864

> <Link to Ligand-Target Pair in BindingDB>
http://www.bindingdb.org/jsp/dbsearch/PrimarySearch_ki.jsp?energyterm=kJ/mole&tag=pol&polymerid=4676&target=DNA+repair+protein+RAD51+homolog+1&column=ki&startPg=0&Increment=50&submit=Search

> <Link to Ligand-Target Pair in BindingDB>
http://www.bindingdb.org/jsp/dbsearch/PrimarySearch_ki.jsp?energyterm=kJ/mole&tag=r21&monomerid=43864&enzyme=DNA+repair+protein+RAD51+homolog+1&column=ki&startPg=0&Increment=50&submit=Search

> <Ligand HET ID in PDB>


> <PDB ID(s) for Ligand-Target Complex>


> <PubChem CID of Ligand>
65558

> <PubChem SID of Ligand>
172097707

> <ChEBI ID of Ligand>


> <ChEMBL ID of Ligand>


> <DrugBank ID of Ligand>


> <IUPHAR_GRAC ID of Ligand>


> <KEGG ID of Ligand>


> <ZINC ID of Ligand>
ZINC00538110

> <Number of Protein Chains in Target (bigger than 1 implies a multichain complex)>
1

> <BindingDB Target Chain Sequence>
MAMQMQLEANADTSVEEESFGPQPISRLEQCGINANDVKKLEEAGFHTVEAVAYAPKKELINIKGISEAKADKILAEAAKLVPMGFTTATEFHQRRSEIIQITTGSKELDKLLQGGIETGSITEMFGEFRTGKTQICHTLAVTCQLPIDRGGGEGKAMYIDTEGTFRPERLLAVAERYGLSGSDVLDNVAYARAFNTDHQTQLLYQASAMMVESRYALLIVDSATALYRTDYSGRGELSARQMHLARFLRMLLRLADEFGVAVVITNQVVAQVDGAAMFAADPKKPIGGNIIAHASTTRLYLRKGRGETRICKIYDSPCLPEAEAMFAINADGVGDAKD

> <PDB ID(s) of Target Chain>
1N0W,5JZC,5NP7,5NWL,8BQ2,8BR2,8BSC

> <UniProt (SwissProt) Recommended Name of Target Chain>
DNA repair protein RAD51 homolog 1

> <UniProt (SwissProt) Entry Name of Target Chain>
RAD51_HUMAN

> <UniProt (SwissProt) Primary ID of Target Chain>
Q06609

> <UniProt (SwissProt) Secondary ID(s) of Target Chain>
B0FXP0 B2R8T6 Q6FHX9 Q6ZNA8 Q9BV60

> <UniProt (SwissProt) Alternative ID(s) of Target Chain>


> <UniProt (TrEMBL) Submitted Name of Target Chain>


> <UniProt (TrEMBL) Entry Name of Target Chain>


> <UniProt (TrEMBL) Primary ID of Target Chain>


> <UniProt (TrEMBL) Secondary ID(s) of Target Chain>


> <UniProt (TrEMBL) Alternative ID(s) of Target Chain>


$$$$
114917
  Mrv0541 11251416042D          

 21 24  0  0  0  0            999 V2000
    6.1639   -0.0047    0.0000 O   0  0  0  0  0  0  0  0  0  0  0  0
    3.2399    1.4843    0.0000 O   0  0  0  0  0  0  0  0  0  0  0  0
    4.6688    2.3093    0.0000 O   0  0  0  0  0  0  0  0  0  0  0  0
    3.9543    0.2468    0.0000 C   0  0  0  0  0  0  0  0  0  0  0  0
    4.6688   -0.1657    0.0000 C   0  0  0  0  0  0  0  0  0  0  0  0
    3.2036   -0.1714    0.0000 C   0  0  0  0  0  0  0  0  0  0  0  0
    5.3832    0.2468    0.0000 C   0  0  0  0  0  0  0  0  0  0  0  0
    5.3832    1.0718    0.0000 C   0  0  0  0  0  0  0  0  0  0  0  0
    3.1970   -1.0308    0.0000 C   0  0  0  0  0  0  0  0  0  0  0  0
    3.9543    1.0718    0.0000 C   0  0  0  0  0  0  0  0  0  0  0  0
    4.6820   -1.0250    0.0000 C   0  0  0  0  0  0  0  0  0  0  0  0
    6.1639    1.3231    0.0000 C   0  0  0  0  0  0  0  0  0  0  0  0
    4.6688    1.4843    0.0000 C   0  0  0  0  0  0  0  0  0  0  0  0
    3.9411   -1.4604    0.0000 C   0  0  0  0  0  0  0  0  0  0  0  0
    2.4252   -1.4843    0.0000 C   0  0  0  0  0  0  0  0  0  0  0  0
    2.4389    0.2939    0.0000 C   0  0  0  0  0  0  0  0  0  0  0  0
    6.6454    0.6593    0.0000 C   0  0  0  0  0  0  0  0  0  0  0  0
    1.6500   -1.0367    0.0000 C   0  0  0  0  0  0  0  0  0  0  0  0
    1.6569   -0.1416    0.0000 C   0  0  0  0  0  0  0  0  0  0  0  0
    6.4201    2.1073    0.0000 C   0  0  0  0  0  0  0  0  0  0  0  0
    2.4284   -2.3093    0.0000 C   0  0  0  0  0  0  0  0  0  0  0  0
  1  7  1  0  0  0  0
  1 17  1  0  0  0  0
  2 10  2  0  0  0  0
  3 13  2  0  0  0  0
  4  5  1  0  0  0  0
  4  6  2  0  0  0  0
  4 10  1  0  0  0  0
  5  7  1  0  0  0  0
  5 11  2  0  0  0  0
  6  9  1  0  0  0  0
  6 16  1  0  0  0  0
  7  8  2  0  0  0  0
  8 12  1  0  0  0  0
  8 13  1  0  0  0  0
  9 14  2  0  0  0  0
  9 15  1  0  0  0  0
 10 13  1  0  0  0  0
 11 14  1  0  0  0  0
 12 17  2  0  0  0  0
 12 20  1  0  0  0  0
 15 18  2  0  0  0  0
 15 21  1  0  0  0  0
 16 19  2  0  0  0  0
 18 19  1  0  0  0  0
M  END
> <From>
www.bindingDB.org

> <BindingDB Reactant_set_id>
95190

> <Ligand InChI>
InChI=1S/C18H12O3/c1-9-4-3-5-12-11(9)6-7-13-15(12)17(20)16(19)14-10(2)8-21-18(13)14/h3-8H,1-2H3

> <Ligand InChI Key>
AIGAZQPHXLWMOJ-UHFFFAOYSA-N

> <BindingDB MonomerID>
51317

> <BindingDB Ligand Name>
1,6-dimethylnaphtho[1,2-g][1]benzofuran-10,11-dione::1,6-dimethylnaphtho[1,2-g]benzofuran-10,11-dione::1,6-dimethylnaphtho[1,2-g]benzofuran-10,11-quinone::MLS000697676::SMR000445578::TANSHINONE I::acs.jmedchem.1c00409_ST.675::cid_114917

> <Target Name>
DNA repair protein RAD51 homolog 1

> <Target Source Organism According to Curator or DataSource>
Homo sapiens

> <Ki (nM)>


> <IC50 (nM)>
 85000

> <Kd (nM)>


> <EC50 (nM)>


> <kon (M-1-s-1)>


> <koff (s-1)>


> <pH>


> <Temp C>


> <Curation/DataSource>
PubChem

> <Article DOI>


> <BindingDB Entry DOI>
10.7270/Q2VD6WW6

> <PMID>


> <PubChem AID>
aid1436

> <Patent Number>


> <Authors>
PubChem, PC

> <Date of publication>
11/25/2008

> <Date in BindingDB>
5/31/2011

> <Institution>
PCMD

> <Link to Ligand in BindingDB>
http://www.bindingdb.org/bind/chemsearch/marvin/MolStructure.jsp?monomerid=51317

> <Link to Ligand-Target Pair in BindingDB>
http://www.bindingdb.org/jsp/dbsearch/PrimarySearch_ki.jsp?energyterm=kJ/mole&tag=pol&polymerid=4676&target=DNA+repair+protein+RAD51+homolog+1&column=ki&startPg=0&Increment=50&submit=Search

> <Link to Ligand-Target Pair in BindingDB>
http://www.bindingdb.org/jsp/dbsearch/PrimarySearch_ki.jsp?energyterm=kJ/mole&tag=r21&monomerid=51317&enzyme=DNA+repair+protein+RAD51+homolog+1&column=ki&startPg=0&Increment=50&submit=Search

> <Ligand HET ID in PDB>


> <PDB ID(s) for Ligand-Target Complex>


> <PubChem CID of Ligand>
114917

> <PubChem SID of Ligand>
252631541

> <ChEBI ID of Ligand>


> <ChEMBL ID of Ligand>


> <DrugBank ID of Ligand>


> <IUPHAR_GRAC ID of Ligand>


> <KEGG ID of Ligand>


> <ZINC ID of Ligand>
ZINC06663580

> <Number of Protein Chains in Target (bigger than 1 implies a multichain complex)>
1

> <BindingDB Target Chain Sequence>
MAMQMQLEANADTSVEEESFGPQPISRLEQCGINANDVKKLEEAGFHTVEAVAYAPKKELINIKGISEAKADKILAEAAKLVPMGFTTATEFHQRRSEIIQITTGSKELDKLLQGGIETGSITEMFGEFRTGKTQICHTLAVTCQLPIDRGGGEGKAMYIDTEGTFRPERLLAVAERYGLSGSDVLDNVAYARAFNTDHQTQLLYQASAMMVESRYALLIVDSATALYRTDYSGRGELSARQMHLARFLRMLLRLADEFGVAVVITNQVVAQVDGAAMFAADPKKPIGGNIIAHASTTRLYLRKGRGETRICKIYDSPCLPEAEAMFAINADGVGDAKD

> <PDB ID(s) of Target Chain>
1N0W,5JZC,5NP7,5NWL,8BQ2,8BR2,8BSC

> <UniProt (SwissProt) Recommended Name of Target Chain>
DNA repair protein RAD51 homolog 1

> <UniProt (SwissProt) Entry Name of Target Chain>
RAD51_HUMAN

> <UniProt (SwissProt) Primary ID of Target Chain>
Q06609

> <UniProt (SwissProt) Secondary ID(s) of Target Chain>
B0FXP0 B2R8T6 Q6FHX9 Q6ZNA8 Q9BV60

> <UniProt (SwissProt) Alternative ID(s) of Target Chain>


> <UniProt (TrEMBL) Submitted Name of Target Chain>


> <UniProt (TrEMBL) Entry Name of Target Chain>


> <UniProt (TrEMBL) Primary ID of Target Chain>


> <UniProt (TrEMBL) Secondary ID(s) of Target Chain>


> <UniProt (TrEMBL) Alternative ID(s) of Target Chain>


$$$$
5351222
  Mrv0541 11251415482D          

 23 25  0  0  0  0            999 V2000
    2.3112    2.0077    0.0000 O   0  0  0  0  0  0  0  0  0  0  0  0
    6.4924    1.2073    0.0000 O   0  0  0  0  0  0  0  0  0  0  0  0
    5.0810   -1.2156    0.0000 O   0  0  0  0  0  0  0  0  0  0  0  0
    1.6297   -1.6196    0.0000 O   0  0  0  0  0  0  0  0  0  0  0  0
    3.0017   -1.6037    0.0000 O   0  0  0  0  0  0  0  0  0  0  0  0
    5.7625    2.4117    0.0000 O   0  0  0  0  0  0  0  0  0  0  0  0
    3.6961    1.1882    0.0000 N   0  0  0  0  0  0  0  0  0  0  0  0
    3.6961   -0.3960    0.0000 N   0  0  0  0  0  0  0  0  0  0  0  0
    4.3822    0.7922    0.0000 C   0  0  0  0  0  0  0  0  0  0  0  0
    3.0101    0.7922    0.0000 C   0  0  0  0  0  0  0  0  0  0  0  0
    3.0101    0.0000    0.0000 C   0  0  0  0  0  0  0  0  0  0  0  0
    4.3822    0.0000    0.0000 C   0  0  0  0  0  0  0  0  0  0  0  0
    5.0902    1.2156    0.0000 C   0  0  0  0  0  0  0  0  0  0  0  0
    2.3021   -0.4235    0.0000 C   0  0  0  0  0  0  0  0  0  0  0  0
    2.3021    1.2156    0.0000 C   0  0  0  0  0  0  0  0  0  0  0  0
    5.0902   -0.4235    0.0000 C   0  0  0  0  0  0  0  0  0  0  0  0
    5.8080    0.8087    0.0000 C   0  0  0  0  0  0  0  0  0  0  0  0
    1.5843   -0.0165    0.0000 C   0  0  0  0  0  0  0  0  0  0  0  0
    1.5843    0.8087    0.0000 C   0  0  0  0  0  0  0  0  0  0  0  0
    5.8080   -0.0165    0.0000 C   0  0  0  0  0  0  0  0  0  0  0  0
    2.3112   -1.2156    0.0000 C   0  0  0  0  0  0  0  0  0  0  0  0
    5.0810    2.0077    0.0000 C   0  0  0  0  0  0  0  0  0  0  0  0
    1.6389   -2.4117    0.0000 C   0  0  0  0  0  0  0  0  0  0  0  0
  1 15  1  0  0  0  0
  2 17  1  0  0  0  0
  3 16  1  0  0  0  0
  4 21  1  0  0  0  0
  4 23  1  0  0  0  0
  5 21  2  0  0  0  0
  6 22  2  0  0  0  0
  7  9  1  0  0  0  0
  7 10  2  0  0  0  0
  8 11  2  0  0  0  0
  8 12  1  0  0  0  0
  9 12  1  0  0  0  0
  9 13  2  0  0  0  0
 10 11  1  0  0  0  0
 10 15  1  0  0  0  0
 11 14  1  0  0  0  0
 12 16  2  0  0  0  0
 13 17  1  0  0  0  0
 13 22  1  0  0  0  0
 14 18  2  0  0  0  0
 14 21  1  0  0  0  0
 15 19  2  0  0  0  0
 16 20  1  0  0  0  0
 17 20  2  0  0  0  0
 18 19  1  0  0  0  0
M  END
> <From>
www.bindingDB.org

> <BindingDB Reactant_set_id>
95191

> <Ligand InChI>
InChI=1S/C15H10N2O6/c1-23-15(22)6-2-3-8(19)13-11(6)16-14-10(21)4-9(20)7(5-18)12(14)17-13/h2-5,19-21H,1H3

> <Ligand InChI Key>
CRANETCJDDEINO-UHFFFAOYSA-N

> <BindingDB MonomerID>
43865

> <BindingDB Ligand Name>
6-formyl-4,7-dihydroxy-9-keto-5H-phenazine-1-carboxylic acid methyl ester::6-formyl-4,7-dihydroxy-9-oxo-5H-phenazine-1-carboxylic acid methyl ester::Glycopeptide, 4::Lomofungin::MLS000766240::SMR000528852::cid_5351222::methyl 6-formyl-4,7-dihydroxy-9-oxo-5H-phenazine-1-carboxylate::methyl 6-methanoyl-4,7-bis(oxidanyl)-9-oxidanylidene-5H-phenazine-1-carboxylate

> <Target Name>
DNA repair protein RAD51 homolog 1

> <Target Source Organism According to Curator or DataSource>
Homo sapiens

> <Ki (nM)>


> <IC50 (nM)>
 42500

> <Kd (nM)>


> <EC50 (nM)>


> <kon (M-1-s-1)>


> <koff (s-1)>


> <pH>


> <Temp C>


> <Curation/DataSource>
PubChem

> <Article DOI>


> <BindingDB Entry DOI>
10.7270/Q2VD6WW6

> <PMID>


> <PubChem AID>
aid1436

> <Patent Number>


> <Authors>
PubChem, PC

> <Date of publication>
11/25/2008

> <Date in BindingDB>
5/31/2011

> <Institution>
PCMD

> <Link to Ligand in BindingDB>
http://www.bindingdb.org/bind/chemsearch/marvin/MolStructure.jsp?monomerid=43865

> <Link to Ligand-Target Pair in BindingDB>
http://www.bindingdb.org/jsp/dbsearch/PrimarySearch_ki.jsp?energyterm=kJ/mole&tag=pol&polymerid=4676&target=DNA+repair+protein+RAD51+homolog+1&column=ki&startPg=0&Increment=50&submit=Search

> <Link to Ligand-Target Pair in BindingDB>
http://www.bindingdb.org/jsp/dbsearch/PrimarySearch_ki.jsp?energyterm=kJ/mole&tag=r21&monomerid=43865&enzyme=DNA+repair+protein+RAD51+homolog+1&column=ki&startPg=0&Increment=50&submit=Search

> <Ligand HET ID in PDB>


> <PDB ID(s) for Ligand-Target Complex>


> <PubChem CID of Ligand>
5351222

> <PubChem SID of Ligand>
172097708

> <ChEBI ID of Ligand>


> <ChEMBL ID of Ligand>


> <DrugBank ID of Ligand>


> <IUPHAR_GRAC ID of Ligand>


> <KEGG ID of Ligand>


> <ZINC ID of Ligand>
ZINC13130211

> <Number of Protein Chains in Target (bigger than 1 implies a multichain complex)>
1

> <BindingDB Target Chain Sequence>
MAMQMQLEANADTSVEEESFGPQPISRLEQCGINANDVKKLEEAGFHTVEAVAYAPKKELINIKGISEAKADKILAEAAKLVPMGFTTATEFHQRRSEIIQITTGSKELDKLLQGGIETGSITEMFGEFRTGKTQICHTLAVTCQLPIDRGGGEGKAMYIDTEGTFRPERLLAVAERYGLSGSDVLDNVAYARAFNTDHQTQLLYQASAMMVESRYALLIVDSATALYRTDYSGRGELSARQMHLARFLRMLLRLADEFGVAVVITNQVVAQVDGAAMFAADPKKPIGGNIIAHASTTRLYLRKGRGETRICKIYDSPCLPEAEAMFAINADGVGDAKD

> <PDB ID(s) of Target Chain>
1N0W,5JZC,5NP7,5NWL,8BQ2,8BR2,8BSC

> <UniProt (SwissProt) Recommended Name of Target Chain>
DNA repair protein RAD51 homolog 1

> <UniProt (SwissProt) Entry Name of Target Chain>
RAD51_HUMAN

> <UniProt (SwissProt) Primary ID of Target Chain>
Q06609

> <UniProt (SwissProt) Secondary ID(s) of Target Chain>
B0FXP0 B2R8T6 Q6FHX9 Q6ZNA8 Q9BV60

> <UniProt (SwissProt) Alternative ID(s) of Target Chain>


> <UniProt (TrEMBL) Submitted Name of Target Chain>


> <UniProt (TrEMBL) Entry Name of Target Chain>


> <UniProt (TrEMBL) Primary ID of Target Chain>


> <UniProt (TrEMBL) Secondary ID(s) of Target Chain>


> <UniProt (TrEMBL) Alternative ID(s) of Target Chain>


$$$$

  Mrv0541 11231401252D          

 26 28  0  0  0  0            999 V2000
    4.5449   -5.3905    0.0000 C   0  0  0  0  0  0  0  0  0  0  0  0
    3.0606   -5.3330    0.0000 C   0  0  0  0  0  0  0  0  0  0  0  0
    2.9053   -4.5103    0.0000 C   0  0  0  0  0  0  0  0  0  0  0  0
    3.4403   -3.9235    0.0000 C   0  0  0  0  0  0  0  0  0  0  0  0
    4.7520   -4.6139    0.0000 C   0  0  0  0  0  0  0  0  0  0  0  0
    5.1259   -5.9773    0.0000 C   0  0  0  0  0  0  0  0  0  0  0  0
    4.2687   -3.9523    0.0000 O   0  0  0  0  0  0  0  0  0  0  0  0
    3.7855   -5.7185    0.0000 O   0  0  0  0  0  0  0  0  0  0  0  0
    2.4335   -5.8680    0.0000 C   0  0  0  0  0  0  0  0  0  0  0  0
    5.5459   -4.3895    0.0000 C   0  0  0  0  0  0  0  0  0  0  0  0
    2.1286   -4.2342    0.0000 C   0  0  0  0  0  0  0  0  0  0  0  0
    5.9256   -5.7702    0.0000 C   0  0  0  0  0  0  0  0  0  0  0  0
    1.6626   -5.5919    0.0000 C   0  0  0  0  0  0  0  0  0  0  0  0
    4.9073   -6.7713    0.0000 C   0  0  0  0  0  0  0  0  0  0  0  0
    6.1327   -4.9763    0.0000 C   0  0  0  0  0  0  0  0  0  0  0  0
    1.5015   -4.7692    0.0000 C   0  0  0  0  0  0  0  0  0  0  0  0
    3.0893   -3.1469    0.0000 O   0  0  0  0  0  0  0  0  0  0  0  0
    2.5716   -6.6964    0.0000 C   0  0  0  0  0  0  0  0  0  0  0  0
    5.4941   -7.3695    0.0000 O   0  0  0  0  0  0  0  0  0  0  0  0
    3.3367   -6.9898    0.0000 O   0  0  0  0  0  0  0  0  0  0  0  0
    4.1076   -6.9956    0.0000 O   0  0  0  0  0  0  0  0  0  0  0  0
    1.0355   -6.1327    0.0000 O   0  0  0  0  0  0  0  0  0  0  0  0
    6.9380   -4.7520    0.0000 O   0  0  0  0  0  0  0  0  0  0  0  0
    5.7530   -3.5784    0.0000 C   0  0  0  0  0  0  0  0  0  0  0  0
    1.9848   -3.4172    0.0000 C   0  0  0  0  0  0  0  0  0  0  0  0
    7.5134   -5.3388    0.0000 C   0  0  0  0  0  0  0  0  0  0  0  0
  2  8  1  0  0  0  0
  3  2  2  0  0  0  0
  4  7  1  0  0  0  0
  5  1  2  0  0  0  0
  6  1  1  0  0  0  0
  7  5  1  0  0  0  0
  8  1  1  0  0  0  0
  9  2  1  0  0  0  0
 10  5  1  0  0  0  0
 11  3  1  0  0  0  0
 12  6  2  0  0  0  0
 13  9  2  0  0  0  0
 14  6  1  0  0  0  0
 15 12  1  0  0  0  0
 16 13  1  0  0  0  0
 17  4  2  0  0  0  0
 18  9  1  0  0  0  0
 19 14  2  0  0  0  0
 20 18  2  0  0  0  0
 21 14  1  0  0  0  0
 22 13  1  0  0  0  0
 23 15  1  0  0  0  0
 24 10  1  0  0  0  0
 25 11  1  0  0  0  0
 26 23  1  0  0  0  0
 15 10  2  0  0  0  0
  3  4  1  0  0  0  0
 11 16  2  0  0  0  0
M  END
> <From>
www.bindingDB.org

> <BindingDB Reactant_set_id>
95192

> <Ligand InChI>
InChI=1S/C18H14O8/c1-7-4-11(20)10(6-19)15-13(7)18(23)26-14-8(2)12(24-3)5-9(17(21)22)16(14)25-15/h4-6,20H,1-3H3,(H,21,22)

> <Ligand InChI Key>
FUCWJKJZOHOLEO-UHFFFAOYSA-N

> <BindingDB MonomerID>
50056939

> <BindingDB Ligand Name>
4-Formyl-3-hydroxy-8-methoxy-1,9-dimethyl-11-oxo-11H-dibenzo[b,e][1,4]dioxepine-6-carboxylic acid::CHEMBL176570::NSC-92186::Parellic acid, 3::cid_23725

> <Target Name>
DNA repair protein RAD51 homolog 1

> <Target Source Organism According to Curator or DataSource>
Homo sapiens

> <Ki (nM)>


> <IC50 (nM)>
 85000

> <Kd (nM)>


> <EC50 (nM)>


> <kon (M-1-s-1)>


> <koff (s-1)>


> <pH>


> <Temp C>


> <Curation/DataSource>
PubChem

> <Article DOI>


> <BindingDB Entry DOI>
10.7270/Q2VD6WW6

> <PMID>


> <PubChem AID>
aid1436

> <Patent Number>


> <Authors>
PubChem, PC

> <Date of publication>
11/25/2008

> <Date in BindingDB>
5/31/2011

> <Institution>
PCMD

> <Link to Ligand in BindingDB>
http://www.bindingdb.org/bind/chemsearch/marvin/MolStructure.jsp?monomerid=50056939

> <Link to Ligand-Target Pair in BindingDB>
http://www.bindingdb.org/jsp/dbsearch/PrimarySearch_ki.jsp?energyterm=kJ/mole&tag=pol&polymerid=4676&target=DNA+repair+protein+RAD51+homolog+1&column=ki&startPg=0&Increment=50&submit=Search

> <Link to Ligand-Target Pair in BindingDB>
http://www.bindingdb.org/jsp/dbsearch/PrimarySearch_ki.jsp?energyterm=kJ/mole&tag=r21&monomerid=50056939&enzyme=DNA+repair+protein+RAD51+homolog+1&column=ki&startPg=0&Increment=50&submit=Search

> <Ligand HET ID in PDB>
PJA

> <PDB ID(s) for Ligand-Target Complex>
4EHM

> <PubChem CID of Ligand>
23725

> <PubChem SID of Ligand>
103953069

> <ChEBI ID of Ligand>


> <ChEMBL ID of Ligand>
CHEMBL176570

> <DrugBank ID of Ligand>


> <IUPHAR_GRAC ID of Ligand>


> <KEGG ID of Ligand>


> <ZINC ID of Ligand>
ZINC01598047

> <Number of Protein Chains in Target (bigger than 1 implies a multichain complex)>
1

> <BindingDB Target Chain Sequence>
MAMQMQLEANADTSVEEESFGPQPISRLEQCGINANDVKKLEEAGFHTVEAVAYAPKKELINIKGISEAKADKILAEAAKLVPMGFTTATEFHQRRSEIIQITTGSKELDKLLQGGIETGSITEMFGEFRTGKTQICHTLAVTCQLPIDRGGGEGKAMYIDTEGTFRPERLLAVAERYGLSGSDVLDNVAYARAFNTDHQTQLLYQASAMMVESRYALLIVDSATALYRTDYSGRGELSARQMHLARFLRMLLRLADEFGVAVVITNQVVAQVDGAAMFAADPKKPIGGNIIAHASTTRLYLRKGRGETRICKIYDSPCLPEAEAMFAINADGVGDAKD

> <PDB ID(s) of Target Chain>
1N0W,5JZC,5NP7,5NWL,8BQ2,8BR2,8BSC

> <UniProt (SwissProt) Recommended Name of Target Chain>
DNA repair protein RAD51 homolog 1

> <UniProt (SwissProt) Entry Name of Target Chain>
RAD51_HUMAN

> <UniProt (SwissProt) Primary ID of Target Chain>
Q06609

> <UniProt (SwissProt) Secondary ID(s) of Target Chain>
B0FXP0 B2R8T6 Q6FHX9 Q6ZNA8 Q9BV60

> <UniProt (SwissProt) Alternative ID(s) of Target Chain>


> <UniProt (TrEMBL) Submitted Name of Target Chain>


> <UniProt (TrEMBL) Entry Name of Target Chain>


> <UniProt (TrEMBL) Primary ID of Target Chain>


> <UniProt (TrEMBL) Secondary ID(s) of Target Chain>


> <UniProt (TrEMBL) Alternative ID(s) of Target Chain>


$$$$
457193
  Mrv0541 11251415482D          

 90 96  0  0  1  0            999 V2000
   13.6869    2.4519    0.0000 O   0  0  0  0  0  0  0  0  0  0  0  0
    5.0461    1.1985    0.0000 O   0  0  0  0  0  0  0  0  0  0  0  0
   11.6429    1.8522    0.0000 O   0  0  0  0  0  0  0  0  0  0  0  0
    4.4957   -0.8592    0.0000 O   0  0  0  0  0  0  0  0  0  0  0  0
   10.3814    0.2363    0.0000 O   0  0  0  0  0  0  0  0  0  0  0  0
    5.2203   -2.7770    0.0000 O   0  0  0  0  0  0  0  0  0  0  0  0
   13.3237    0.0714    0.0000 O   0  0  0  0  0  0  0  0  0  0  0  0
    6.8909   -0.3494    0.0000 O   0  0  0  0  0  0  0  0  0  0  0  0
    8.6067    3.3358    0.0000 O   0  0  0  0  0  0  0  0  0  0  0  0
    1.6499   -2.6816    0.0000 O   0  0  0  0  0  0  0  0  0  0  0  0
    8.9527    0.2198    0.0000 O   0  0  0  0  0  0  0  0  0  0  0  0
    4.4916   -4.0061    0.0000 O   0  0  0  0  0  0  0  0  0  0  0  0
    9.7525   -3.6943    0.0000 O   0  0  0  0  0  0  0  0  0  0  0  0
   10.4757   -0.7866    0.0000 O   0  0  0  0  0  0  0  0  0  0  0  0
    7.6005   -0.7701    0.0000 O   0  0  0  0  0  0  0  0  0  0  0  0
   12.6647   -3.7142    0.0000 O   0  0  0  0  0  0  0  0  0  0  0  0
   12.4514    3.2905    0.0000 N   0  0  0  0  0  0  0  0  0  0  0  0
    3.6875    0.5791    0.0000 N   0  0  0  0  0  0  0  0  0  0  0  0
   10.3973    2.5522    0.0000 N   0  0  0  0  0  0  0  0  0  0  0  0
    3.2501   -1.5593    0.0000 N   0  0  0  0  0  0  0  0  0  0  0  0
   12.5951    1.3005    0.0000 N   0  0  0  0  0  0  0  0  0  0  0  0
    5.4620   -0.3329    0.0000 N   0  0  0  0  0  0  0  0  0  0  0  0
    9.0627    2.0420    0.0000 N   0  0  0  0  0  0  0  0  0  0  0  0
    2.9922   -2.9648    0.0000 N   0  0  0  0  0  0  0  0  0  0  0  0
   11.9045   -0.7701    0.0000 N   0  0  0  0  0  0  0  0  0  0  0  0
    6.8717   -1.9992    0.0000 N   0  0  0  0  0  0  0  0  0  0  0  0
    9.7525   -2.0444    0.0000 N   0  0  0  0  0  0  0  0  0  0  0  0
   12.6647   -2.0244    0.0000 N   0  0  0  0  0  0  0  0  0  0  0  0
   11.6264    3.2811    0.0000 C   0  0  1  0  0  0  0  0  0  0  0  0
    3.2667   -0.1306    0.0000 C   0  0  1  0  0  0  0  0  0  0  0  0
   11.3660    4.0586    0.0000 C   0  0  0  0  0  0  0  0  0  0  0  0
    2.4669    0.0512    0.0000 C   0  0  0  0  0  0  0  0  0  0  0  0
   12.0243    4.5478    0.0000 C   0  0  0  0  0  0  0  0  0  0  0  0
   12.6938    4.0740    0.0000 C   0  0  0  0  0  0  0  0  0  0  0  0
    2.3914    0.8678    0.0000 C   0  0  0  0  0  0  0  0  0  0  0  0
    3.1441    1.1934    0.0000 C   0  0  0  0  0  0  0  0  0  0  0  0
   12.8720    2.5809    0.0000 C   0  0  0  0  0  0  0  0  0  0  0  0
   13.1716    1.8905    0.0000 C   0  0  1  0  0  0  0  0  0  0  0  0
    4.5123    0.5695    0.0000 C   0  0  0  0  0  0  0  0  0  0  0  0
    5.2579    0.4665    0.0000 C   0  0  1  0  0  0  0  0  0  0  0  0
   11.2223    2.5618    0.0000 C   0  0  0  0  0  0  0  0  0  0  0  0
    3.6709   -0.8497    0.0000 C   0  0  0  0  0  0  0  0  0  0  0  0
   13.9912    1.7965    0.0000 C   0  0  0  0  0  0  0  0  0  0  0  0
    5.7642    1.1177    0.0000 C   0  0  0  0  0  0  0  0  0  0  0  0
   14.3197    1.0398    0.0000 C   0  0  0  0  0  0  0  0  0  0  0  0
   14.4823    2.4593    0.0000 C   0  0  0  0  0  0  0  0  0  0  0  0
    6.5814    1.0048    0.0000 C   0  0  0  0  0  0  0  0  0  0  0  0
    5.4532    1.8818    0.0000 C   0  0  0  0  0  0  0  0  0  0  0  0
    9.9766    3.2619    0.0000 C   0  0  0  0  0  0  0  0  0  0  0  0
    2.4252   -1.5498    0.0000 C   0  0  0  0  0  0  0  0  0  0  0  0
   12.6046    0.4755    0.0000 C   0  0  0  0  0  0  0  0  0  0  0  0
    6.1717   -0.7537    0.0000 C   0  0  0  0  0  0  0  0  0  0  0  0
   11.8949    0.0548    0.0000 C   0  0  2  0  0  0  0  0  0  0  0  0
    6.1622   -1.5785    0.0000 C   0  0  2  0  0  0  0  0  0  0  0  0
    9.9931    1.8332    0.0000 C   0  0  0  0  0  0  0  0  0  0  0  0
    3.6544   -2.2785    0.0000 C   0  0  0  0  0  0  0  0  0  0  0  0
   11.1758    0.4590    0.0000 C   0  0  1  0  0  0  0  0  0  0  0  0
    5.4430   -1.9827    0.0000 C   0  0  1  0  0  0  0  0  0  0  0  0
    9.6528    1.4654    0.0000 C   0  0  1  0  0  0  0  0  0  0  0  0
    3.7915   -2.7605    0.0000 C   0  0  1  0  0  0  0  0  0  0  0  0
    9.2670    2.8412    0.0000 C   0  0  0  0  0  0  0  0  0  0  0  0
    2.4156   -2.3747    0.0000 C   0  0  0  0  0  0  0  0  0  0  0  0
   10.4765    1.5109    0.0000 C   0  0  0  0  0  0  0  0  0  0  0  0
    4.1809   -2.0332    0.0000 C   0  0  0  0  0  0  0  0  0  0  0  0
    9.6623    0.6405    0.0000 C   0  0  0  0  0  0  0  0  0  0  0  0
    4.5012   -3.1812    0.0000 C   0  0  0  0  0  0  0  0  0  0  0  0
   11.2741    1.2781    0.0000 C   0  0  0  0  0  0  0  0  0  0  0  0
    4.7944   -1.4729    0.0000 C   0  0  0  0  0  0  0  0  0  0  0  0
    8.2684    1.8192    0.0000 C   0  0  0  0  0  0  0  0  0  0  0  0
    2.7696   -3.7592    0.0000 C   0  0  0  0  0  0  0  0  0  0  0  0
   10.6643    0.7076    0.0000 C   0  0  0  0  0  0  0  0  0  0  0  0
   11.0782    2.0753    0.0000 C   0  0  0  0  0  0  0  0  0  0  0  0
    4.7312   -2.6478    0.0000 C   0  0  0  0  0  0  0  0  0  0  0  0
    4.0116   -1.2257    0.0000 C   0  0  0  0  0  0  0  0  0  0  0  0
   11.1949   -1.1908    0.0000 C   0  0  0  0  0  0  0  0  0  0  0  0
    7.5910   -1.5950    0.0000 C   0  0  0  0  0  0  0  0  0  0  0  0
   11.2044   -2.0157    0.0000 C   0  0  0  0  0  0  0  0  0  0  0  0
    8.3006   -2.0157    0.0000 C   0  0  0  0  0  0  0  0  0  0  0  0
   10.4669   -2.4568    0.0000 C   0  0  0  0  0  0  0  0  0  0  0  0
    9.0381   -2.4568    0.0000 C   0  0  0  0  0  0  0  0  0  0  0  0
   11.9519   -2.4395    0.0000 C   0  0  0  0  0  0  0  0  0  0  0  0
   10.4669   -3.2818    0.0000 C   0  0  0  0  0  0  0  0  0  0  0  0
    9.0381   -3.2818    0.0000 C   0  0  0  0  0  0  0  0  0  0  0  0
    7.5531   -2.4395    0.0000 C   0  0  0  0  0  0  0  0  0  0  0  0
   11.2044   -3.7229    0.0000 C   0  0  0  0  0  0  0  0  0  0  0  0
    8.3006   -3.7229    0.0000 C   0  0  0  0  0  0  0  0  0  0  0  0
   11.9519   -3.2990    0.0000 C   0  0  0  0  0  0  0  0  0  0  0  0
    7.5531   -3.2990    0.0000 C   0  0  0  0  0  0  0  0  0  0  0  0
   11.1949   -4.5478    0.0000 C   0  0  0  0  0  0  0  0  0  0  0  0
    8.3101   -4.5478    0.0000 C   0  0  0  0  0  0  0  0  0  0  0  0
  1 37  2  0  0  0  0
  2 39  2  0  0  0  0
  3 41  2  0  0  0  0
  4 42  2  0  0  0  0
 57  5  1  0  0  0  0
  5 65  1  0  0  0  0
 58  6  1  0  0  0  0
  6 66  1  0  0  0  0
  7 51  2  0  0  0  0
  8 52  2  0  0  0  0
  9 61  2  0  0  0  0
 10 62  2  0  0  0  0
 11 65  2  0  0  0  0
 12 66  2  0  0  0  0
 13 82  1  0  0  0  0
 13 83  1  0  0  0  0
 14 75  2  0  0  0  0
 15 76  2  0  0  0  0
 16 87  2  0  0  0  0
 29 17  1  6  0  0  0
 17 34  1  0  0  0  0
 17 37  1  0  0  0  0
 30 18  1  6  0  0  0
 18 36  1  0  0  0  0
 18 39  1  0  0  0  0
 19 41  1  0  0  0  0
 19 49  1  0  0  0  0
 19 55  1  0  0  0  0
 20 42  1  0  0  0  0
 20 50  1  0  0  0  0
 20 56  1  0  0  0  0
 38 21  1  0  0  0  0
 21 51  1  0  0  0  0
 40 22  1  0  0  0  0
 22 52  1  0  0  0  0
 59 23  1  0  0  0  0
 23 61  1  0  0  0  0
 23 69  1  0  0  0  0
 60 24  1  0  0  0  0
 24 62  1  0  0  0  0
 24 70  1  0  0  0  0
 53 25  1  1  0  0  0
 25 75  1  0  0  0  0
 54 26  1  1  0  0  0
 26 76  1  0  0  0  0
 27 79  2  0  0  0  0
 27 80  1  0  0  0  0
 28 81  1  0  0  0  0
 29 31  1  0  0  0  0
 29 41  1  0  0  0  0
 30 32  1  0  0  0  0
 30 42  1  0  0  0  0
 31 33  1  0  0  0  0
 32 35  1  0  0  0  0
 33 34  1  0  0  0  0
 35 36  1  0  0  0  0
 38 37  1  0  0  0  0
 38 43  1  1  0  0  0
 40 39  1  0  0  0  0
 40 44  1  1  0  0  0
 43 45  1  0  0  0  0
 43 46  1  0  0  0  0
 44 47  1  0  0  0  0
 44 48  1  0  0  0  0
 49 61  1  0  0  0  0
 50 62  1  0  0  0  0
 53 51  1  0  0  0  0
 54 52  1  0  0  0  0
 53 57  1  0  0  0  0
 54 58  1  0  0  0  0
 57 67  1  6  0  0  0
 58 68  1  6  0  0  0
 59 63  1  1  0  0  0
 59 65  1  0  0  0  0
 60 64  1  1  0  0  0
 60 66  1  0  0  0  0
 63 71  1  0  0  0  0
 63 72  1  0  0  0  0
 64 73  1  0  0  0  0
 64 74  1  0  0  0  0
 75 77  1  0  0  0  0
 76 78  1  0  0  0  0
 77 79  1  0  0  0  0
 77 81  2  0  0  0  0
 78 80  2  0  0  0  0
 78 84  1  0  0  0  0
 79 82  1  0  0  0  0
 80 83  1  0  0  0  0
 81 87  1  0  0  0  0
 82 85  2  0  0  0  0
 83 86  2  0  0  0  0
 84 88  2  0  0  0  0
 85 87  1  0  0  0  0
 85 89  1  0  0  0  0
 86 88  1  0  0  0  0
 86 90  1  0  0  0  0
M  END
> <From>
www.bindingDB.org

> <BindingDB Reactant_set_id>
95193

> <Ligand InChI>
InChI=1S/C62H86N12O16/c1-27(2)42-59(84)73-23-17-19-36(73)57(82)69(13)25-38(75)71(15)48(29(5)6)61(86)88-33(11)44(55(80)65-42)67-53(78)35-22-21-31(9)51-46(35)64-47-40(41(63)50(77)32(10)52(47)90-51)54(79)68-45-34(12)89-62(87)49(30(7)8)72(16)39(76)26-70(14)58(83)37-20-18-24-74(37)60(85)43(28(3)4)66-56(45)81/h21-22,27-30,33-34,36-37,42-45,48-49H,17-20,23-26,63H2,1-16H3,(H,65,80)(H,66,81)(H,67,78)(H,68,79)/t33-,34-,36+,37+,42-,43-,44+,45+,48+,49+/m1/s1

> <Ligand InChI Key>
RJURFGZVJUQBHK-IIXSONLDSA-N

> <BindingDB MonomerID>
43866

> <BindingDB Ligand Name>
2-amino-4,6-dimethyl-3-oxo-1-N,9-N-bis[(3R,6S,7R,10S,16S)-7,11,14-trimethyl-2,5,9,12,15-pentaoxo-3,10-di(propan-2-yl)-8-oxa-1,4,11,14-tetrazabicyclo[14.3.0]nonadecan-6-yl]phenoxazine-1,9-dicarboxamide::2-amino-4,6-dimethyl-3-oxo-N1,N9-bis[(3R,6S,7R,10S,16S)-7,11,14-trimethyl-2,5,9,12,15-pentaoxo-3,10-di(propan-2-yl)-8-oxa-1,4,11,14-tetrazabicyclo[14.3.0]nonadecan-6-yl]phenoxazine-1,9-dicarboxamide::2-amino-N,N''''-bis[(3R,6S,7R,10S,16S)-3,10-diisopropyl-2,5,9,12,15-pentaketo-7,11,14-trimethyl-8-oxa-1,4,11,14-tetrazabicyclo[14.3.0]nonadecan-6-yl]-3-keto-4,6-dimethyl-phenoxazine-1,9-dicarboxamide::2-amino-N,N''-bis[(3R,6S,7R,10S,16S)-3,10-diisopropyl-2,5,9,12,15-pentaketo-7,11,14-trimethyl-8-oxa-1,4,11,14-tetrazabicyclo[14.3.0]nonadecan-6-yl]-3-keto-4,6-dimethyl-phenoxazine-1,9-dicarboxamide::2-amino-N,N'-bis[(3R,6S,7R,10S,16S)-3,10-diisopropyl-2,5,9,12,15-pentaketo-7,11,14-trimethyl-8-oxa-1,4,11,14-tetrazabicyclo[14.3.0]nonadecan-6-yl]-3-keto-4,6-dimethyl-phenoxazine-1,9-dicarboxamide::2-azanyl-4,6-dimethyl-3-oxidanylidene-N1,N9-bis[(3R,6S,7R,10S,16S)-7,11,14-trimethyl-2,5,9,12,15-pentakis(oxidanylidene)-3,10-di(propan-2-yl)-8-oxa-1,4,11,14-tetrazabicyclo[14.3.0]nonadecan-6-yl]phenoxazine-1,9-dicarboxamide::DACTINOMYCIN::Glycopeptide, 4a::MLS001424196::SMR000469227::cid_457193

> <Target Name>
DNA repair protein RAD51 homolog 1

> <Target Source Organism According to Curator or DataSource>
Homo sapiens

> <Ki (nM)>


> <IC50 (nM)>
 85000

> <Kd (nM)>


> <EC50 (nM)>


> <kon (M-1-s-1)>


> <koff (s-1)>


> <pH>


> <Temp C>


> <Curation/DataSource>
PubChem

> <Article DOI>


> <BindingDB Entry DOI>
10.7270/Q2VD6WW6

> <PMID>


> <PubChem AID>
aid1436

> <Patent Number>


> <Authors>
PubChem, PC

> <Date of publication>
11/25/2008

> <Date in BindingDB>
5/31/2011

> <Institution>
PCMD

> <Link to Ligand in BindingDB>
http://www.bindingdb.org/bind/chemsearch/marvin/MolStructure.jsp?monomerid=43866

> <Link to Ligand-Target Pair in BindingDB>
http://www.bindingdb.org/jsp/dbsearch/PrimarySearch_ki.jsp?energyterm=kJ/mole&tag=pol&polymerid=4676&target=DNA+repair+protein+RAD51+homolog+1&column=ki&startPg=0&Increment=50&submit=Search

> <Link to Ligand-Target Pair in BindingDB>
http://www.bindingdb.org/jsp/dbsearch/PrimarySearch_ki.jsp?energyterm=kJ/mole&tag=r21&monomerid=43866&enzyme=DNA+repair+protein+RAD51+homolog+1&column=ki&startPg=0&Increment=50&submit=Search

> <Ligand HET ID in PDB>


> <PDB ID(s) for Ligand-Target Complex>


> <PubChem CID of Ligand>
457193

> <PubChem SID of Ligand>
172097709

> <ChEBI ID of Ligand>
27666

> <ChEMBL ID of Ligand>


> <DrugBank ID of Ligand>
DB00970

> <IUPHAR_GRAC ID of Ligand>


> <KEGG ID of Ligand>
C06770

> <ZINC ID of Ligand>


> <Number of Protein Chains in Target (bigger than 1 implies a multichain complex)>
1

> <BindingDB Target Chain Sequence>
MAMQMQLEANADTSVEEESFGPQPISRLEQCGINANDVKKLEEAGFHTVEAVAYAPKKELINIKGISEAKADKILAEAAKLVPMGFTTATEFHQRRSEIIQITTGSKELDKLLQGGIETGSITEMFGEFRTGKTQICHTLAVTCQLPIDRGGGEGKAMYIDTEGTFRPERLLAVAERYGLSGSDVLDNVAYARAFNTDHQTQLLYQASAMMVESRYALLIVDSATALYRTDYSGRGELSARQMHLARFLRMLLRLADEFGVAVVITNQVVAQVDGAAMFAADPKKPIGGNIIAHASTTRLYLRKGRGETRICKIYDSPCLPEAEAMFAINADGVGDAKD

> <PDB ID(s) of Target Chain>
1N0W,5JZC,5NP7,5NWL,8BQ2,8BR2,8BSC

> <UniProt (SwissProt) Recommended Name of Target Chain>
DNA repair protein RAD51 homolog 1

> <UniProt (SwissProt) Entry Name of Target Chain>
RAD51_HUMAN

> <UniProt (SwissProt) Primary ID of Target Chain>
Q06609

> <UniProt (SwissProt) Secondary ID(s) of Target Chain>
B0FXP0 B2R8T6 Q6FHX9 Q6ZNA8 Q9BV60

> <UniProt (SwissProt) Alternative ID(s) of Target Chain>


> <UniProt (TrEMBL) Submitted Name of Target Chain>


> <UniProt (TrEMBL) Entry Name of Target Chain>


> <UniProt (TrEMBL) Primary ID of Target Chain>


> <UniProt (TrEMBL) Secondary ID(s) of Target Chain>


> <UniProt (TrEMBL) Alternative ID(s) of Target Chain>


$$$$
660526
  Mrv0541 11251416042D          

 31 34  0  0  0  0            999 V2000
    5.5245    0.4295    0.0000 O   0  0  0  0  0  0  0  0  0  0  0  0
    4.5080   -1.9350    0.0000 O   0  0  0  0  0  0  0  0  0  0  0  0
    3.0790   -0.2850    0.0000 O   0  0  0  0  0  0  0  0  0  0  0  0
    3.7935   -1.5225    0.0000 O   0  0  0  0  0  0  0  0  0  0  0  0
    8.7386   -1.1100    0.0000 N   0  0  0  0  0  0  0  0  0  0  0  0
    7.4321   -0.4461    0.0000 N   0  0  0  0  0  0  0  0  0  0  0  0
    7.4321   -1.7739    0.0000 N   0  0  0  0  0  0  0  0  0  0  0  0
    5.9370   -1.9350    0.0000 N   0  0  0  0  0  0  0  0  0  0  0  0
    5.2224   -0.6975    0.0000 N   0  0  0  0  0  0  0  0  0  0  0  0
    9.1511   -1.8244    0.0000 C   0  0  0  0  0  0  0  0  0  0  0  0
    9.1511   -0.3955    0.0000 C   0  0  0  0  0  0  0  0  0  0  0  0
    9.9761   -0.3955    0.0000 C   0  0  0  0  0  0  0  0  0  0  0  0
    9.9761   -1.8244    0.0000 C   0  0  0  0  0  0  0  0  0  0  0  0
   10.3886   -1.1100    0.0000 C   0  0  0  0  0  0  0  0  0  0  0  0
    7.9136   -1.1100    0.0000 C   0  0  0  0  0  0  0  0  0  0  0  0
    6.6515   -0.6975    0.0000 C   0  0  0  0  0  0  0  0  0  0  0  0
    6.6515   -1.5225    0.0000 C   0  0  0  0  0  0  0  0  0  0  0  0
    7.6884    0.3382    0.0000 C   0  0  0  0  0  0  0  0  0  0  0  0
    5.9370   -0.2850    0.0000 C   0  0  0  0  0  0  0  0  0  0  0  0
    5.2224   -1.5225    0.0000 C   0  0  0  0  0  0  0  0  0  0  0  0
    7.5182    1.1455    0.0000 C   0  0  0  0  0  0  0  0  0  0  0  0
    5.9370   -2.7600    0.0000 C   0  0  0  0  0  0  0  0  0  0  0  0
    4.5080   -0.2850    0.0000 C   0  0  0  0  0  0  0  0  0  0  0  0
    8.1323    1.6964    0.0000 C   0  0  0  0  0  0  0  0  0  0  0  0
    6.7340    1.4017    0.0000 C   0  0  0  0  0  0  0  0  0  0  0  0
    3.7935   -0.6975    0.0000 C   0  0  0  0  0  0  0  0  0  0  0  0
    7.9622    2.5037    0.0000 C   0  0  0  0  0  0  0  0  0  0  0  0
    6.5639    2.2090    0.0000 C   0  0  0  0  0  0  0  0  0  0  0  0
    7.1780    2.7600    0.0000 C   0  0  0  0  0  0  0  0  0  0  0  0
    2.3645   -0.6975    0.0000 C   0  0  0  0  0  0  0  0  0  0  0  0
    1.6500   -0.2850    0.0000 C   0  0  0  0  0  0  0  0  0  0  0  0
  1 19  2  0  0  0  0
  2 20  2  0  0  0  0
  3 26  1  0  0  0  0
  3 30  1  0  0  0  0
  4 26  2  0  0  0  0
  5 10  1  0  0  0  0
  5 11  1  0  0  0  0
  5 15  1  0  0  0  0
  6 15  1  0  0  0  0
  6 16  1  0  0  0  0
  6 18  1  0  0  0  0
  7 15  2  0  0  0  0
  7 17  1  0  0  0  0
  8 17  1  0  0  0  0
  8 20  1  0  0  0  0
  8 22  1  0  0  0  0
  9 19  1  0  0  0  0
  9 20  1  0  0  0  0
  9 23  1  0  0  0  0
 10 13  1  0  0  0  0
 11 12  1  0  0  0  0
 12 14  1  0  0  0  0
 13 14  1  0  0  0  0
 16 17  2  0  0  0  0
 16 19  1  0  0  0  0
 18 21  1  0  0  0  0
 21 24  2  0  0  0  0
 21 25  1  0  0  0  0
 23 26  1  0  0  0  0
 24 27  1  0  0  0  0
 25 28  2  0  0  0  0
 27 29  2  0  0  0  0
 28 29  1  0  0  0  0
 30 31  1  0  0  0  0
M  END
> <From>
www.bindingDB.org

> <BindingDB Reactant_set_id>
95194

> <Ligand InChI>
InChI=1S/C22H27N5O4/c1-3-31-17(28)15-27-20(29)18-19(24(2)22(27)30)23-21(25-12-8-5-9-13-25)26(18)14-16-10-6-4-7-11-16/h4,6-7,10-11H,3,5,8-9,12-15H2,1-2H3

> <Ligand InChI Key>
UEUBDMGNETZVBL-UHFFFAOYSA-N

> <BindingDB MonomerID>
51319

> <BindingDB Ligand Name>
2-(7-benzyl-2,6-diketo-3-methyl-8-piperidino-purin-1-yl)acetic acid ethyl ester::2-[3-methyl-2,6-dioxo-7-(phenylmethyl)-8-(1-piperidinyl)-1-purinyl]acetic acid ethyl ester::EPIRUBICIN HYDROCHLORIDE::MLS000037525::MLS001401404::SMR000041357::SMR000466308::cid_65348::cid_660526::ethyl 2-(7-benzyl-3-methyl-2,6-dioxo-8-piperidin-1-ylpurin-1-yl)acetate::ethyl 2-[3-methyl-2,6-bis(oxidanylidene)-7-(phenylmethyl)-8-piperidin-1-yl-purin-1-yl]ethanoate

> <Target Name>
DNA repair protein RAD51 homolog 1

> <Target Source Organism According to Curator or DataSource>
Homo sapiens

> <Ki (nM)>


> <IC50 (nM)>
 85000

> <Kd (nM)>


> <EC50 (nM)>


> <kon (M-1-s-1)>


> <koff (s-1)>


> <pH>


> <Temp C>


> <Curation/DataSource>
PubChem

> <Article DOI>


> <BindingDB Entry DOI>
10.7270/Q2VD6WW6

> <PMID>


> <PubChem AID>
aid1436

> <Patent Number>


> <Authors>
PubChem, PC

> <Date of publication>
11/25/2008

> <Date in BindingDB>
5/31/2011

> <Institution>
PCMD

> <Link to Ligand in BindingDB>
http://www.bindingdb.org/bind/chemsearch/marvin/MolStructure.jsp?monomerid=51319

> <Link to Ligand-Target Pair in BindingDB>
http://www.bindingdb.org/jsp/dbsearch/PrimarySearch_ki.jsp?energyterm=kJ/mole&tag=pol&polymerid=4676&target=DNA+repair+protein+RAD51+homolog+1&column=ki&startPg=0&Increment=50&submit=Search

> <Link to Ligand-Target Pair in BindingDB>
http://www.bindingdb.org/jsp/dbsearch/PrimarySearch_ki.jsp?energyterm=kJ/mole&tag=r21&monomerid=51319&enzyme=DNA+repair+protein+RAD51+homolog+1&column=ki&startPg=0&Increment=50&submit=Search

> <Ligand HET ID in PDB>


> <PDB ID(s) for Ligand-Target Complex>


> <PubChem CID of Ligand>
660526

> <PubChem SID of Ligand>
252631542

> <ChEBI ID of Ligand>


> <ChEMBL ID of Ligand>


> <DrugBank ID of Ligand>


> <IUPHAR_GRAC ID of Ligand>


> <KEGG ID of Ligand>


> <ZINC ID of Ligand>
ZINC13115922

> <Number of Protein Chains in Target (bigger than 1 implies a multichain complex)>
1

> <BindingDB Target Chain Sequence>
MAMQMQLEANADTSVEEESFGPQPISRLEQCGINANDVKKLEEAGFHTVEAVAYAPKKELINIKGISEAKADKILAEAAKLVPMGFTTATEFHQRRSEIIQITTGSKELDKLLQGGIETGSITEMFGEFRTGKTQICHTLAVTCQLPIDRGGGEGKAMYIDTEGTFRPERLLAVAERYGLSGSDVLDNVAYARAFNTDHQTQLLYQASAMMVESRYALLIVDSATALYRTDYSGRGELSARQMHLARFLRMLLRLADEFGVAVVITNQVVAQVDGAAMFAADPKKPIGGNIIAHASTTRLYLRKGRGETRICKIYDSPCLPEAEAMFAINADGVGDAKD

> <PDB ID(s) of Target Chain>
1N0W,5JZC,5NP7,5NWL,8BQ2,8BR2,8BSC

> <UniProt (SwissProt) Recommended Name of Target Chain>
DNA repair protein RAD51 homolog 1

> <UniProt (SwissProt) Entry Name of Target Chain>
RAD51_HUMAN

> <UniProt (SwissProt) Primary ID of Target Chain>
Q06609

> <UniProt (SwissProt) Secondary ID(s) of Target Chain>
B0FXP0 B2R8T6 Q6FHX9 Q6ZNA8 Q9BV60

> <UniProt (SwissProt) Alternative ID(s) of Target Chain>


> <UniProt (TrEMBL) Submitted Name of Target Chain>


> <UniProt (TrEMBL) Entry Name of Target Chain>


> <UniProt (TrEMBL) Primary ID of Target Chain>


> <UniProt (TrEMBL) Secondary ID(s) of Target Chain>


> <UniProt (TrEMBL) Alternative ID(s) of Target Chain>


$$$$
5389412
  Mrv0541 11251415522D          

 31 34  0  0  0  0            999 V2000
    4.7082   -1.1496    0.0000 O   0  0  0  0  0  0  0  0  0  0  0  0
    5.1583    2.0743    0.0000 O   0  0  0  0  0  0  0  0  0  0  0  0
    6.9140    1.7010    0.0000 O   0  0  0  0  0  0  0  0  0  0  0  0
    7.1016   -0.9090    0.0000 O   0  0  0  0  0  0  0  0  0  0  0  0
    9.9826   -0.1126    0.0000 O   0  0  0  0  0  0  0  0  0  0  0  0
    9.9826    1.5946    0.0000 O   0  0  0  0  0  0  0  0  0  0  0  0
    5.0814    0.6061    0.0000 N   0  0  0  0  0  0  0  0  0  0  0  0
    2.4705    1.7685    0.0000 N   0  0  0  0  0  0  0  0  0  0  0  0
    5.6335   -0.0071    0.0000 C   0  0  0  0  0  0  0  0  0  0  0  0
    4.2609    0.5198    0.0000 C   0  0  0  0  0  0  0  0  0  0  0  0
    6.3871    0.3285    0.0000 C   0  0  0  0  0  0  0  0  0  0  0  0
    3.7759    1.1873    0.0000 C   0  0  0  0  0  0  0  0  0  0  0  0
    5.4620   -0.8140    0.0000 C   0  0  0  0  0  0  0  0  0  0  0  0
    5.4939    1.3205    0.0000 C   0  0  0  0  0  0  0  0  0  0  0  0
    6.3009    1.1490    0.0000 C   0  0  0  0  0  0  0  0  0  0  0  0
    2.9555    1.1010    0.0000 C   0  0  0  0  0  0  0  0  0  0  0  0
    7.1016   -0.0840    0.0000 C   0  0  0  0  0  0  0  0  0  0  0  0
    6.0140   -1.4272    0.0000 C   0  0  0  0  0  0  0  0  0  0  0  0
    7.8161    0.3285    0.0000 C   0  0  0  0  0  0  0  0  0  0  0  0
    4.7944   -1.9701    0.0000 C   0  0  0  0  0  0  0  0  0  0  0  0
    5.6015   -2.1417    0.0000 C   0  0  0  0  0  0  0  0  0  0  0  0
    8.5306   -0.0840    0.0000 C   0  0  0  0  0  0  0  0  0  0  0  0
    7.8161    1.1535    0.0000 C   0  0  0  0  0  0  0  0  0  0  0  0
    1.6500    1.6822    0.0000 C   0  0  0  0  0  0  0  0  0  0  0  0
    2.8061    2.5222    0.0000 C   0  0  0  0  0  0  0  0  0  0  0  0
    9.2451    0.3285    0.0000 C   0  0  0  0  0  0  0  0  0  0  0  0
    9.2451    1.1535    0.0000 C   0  0  0  0  0  0  0  0  0  0  0  0
    4.1814   -2.5222    0.0000 C   0  0  0  0  0  0  0  0  0  0  0  0
    8.5306    1.5660    0.0000 C   0  0  0  0  0  0  0  0  0  0  0  0
   10.7301    0.3114    0.0000 C   0  0  0  0  0  0  0  0  0  0  0  0
   10.7301    1.1707    0.0000 C   0  0  0  0  0  0  0  0  0  0  0  0
  1 13  1  0  0  0  0
  1 20  1  0  0  0  0
  2 14  2  0  0  0  0
  3 15  2  0  0  0  0
  4 17  2  0  0  0  0
  5 26  1  0  0  0  0
  5 30  1  0  0  0  0
  6 27  1  0  0  0  0
  6 31  1  0  0  0  0
  7  9  1  0  0  0  0
  7 10  1  0  0  0  0
  7 14  1  0  0  0  0
  8 16  1  0  0  0  0
  8 24  1  0  0  0  0
  8 25  1  0  0  0  0
  9 11  1  0  0  0  0
  9 13  1  0  0  0  0
 10 12  1  0  0  0  0
 11 15  1  0  0  0  0
 11 17  1  0  0  0  0
 12 16  1  0  0  0  0
 13 18  2  0  0  0  0
 14 15  1  0  0  0  0
 17 19  1  0  0  0  0
 18 21  1  0  0  0  0
 19 22  2  0  0  0  0
 19 23  1  0  0  0  0
 20 21  2  0  0  0  0
 20 28  1  0  0  0  0
 22 26  1  0  0  0  0
 23 29  2  0  0  0  0
 26 27  2  0  0  0  0
 27 29  1  0  0  0  0
 30 31  1  0  0  0  0
M  END
> <From>
www.bindingDB.org

> <BindingDB Reactant_set_id>
95195

> <Ligand InChI>
InChI=1S/C23H26N2O6/c1-14-5-7-17(31-14)20-19(22(27)23(28)25(20)10-4-9-24(2)3)21(26)15-6-8-16-18(13-15)30-12-11-29-16/h5-8,13,19-20H,4,9-12H2,1-3H3

> <Ligand InChI Key>
KDVGUGOHNSSZFX-UHFFFAOYSA-N

> <BindingDB MonomerID>
45326

> <BindingDB Ligand Name>
(4E)-4-[2,3-dihydro-1,4-benzodioxin-6-yl(hydroxy)methylene]-1-[3-(dimethylamino)propyl]-5-(5-methyl-2-furyl)pyrrolidine-2,3-quinone::(4E)-4-[2,3-dihydro-1,4-benzodioxin-6-yl(hydroxy)methylidene]-1-[3-(dimethylamino)propyl]-5-(5-methyl-2-furanyl)pyrrolidine-2,3-dione::(4E)-4-[2,3-dihydro-1,4-benzodioxin-6-yl(hydroxy)methylidene]-1-[3-(dimethylamino)propyl]-5-(5-methylfuran-2-yl)pyrrolidine-2,3-dione::(4E)-4-[2,3-dihydro-1,4-benzodioxin-6-yl(oxidanyl)methylidene]-1-[3-(dimethylamino)propyl]-5-(5-methylfuran-2-yl)pyrrolidine-2,3-dione::MLS000037202::SMR000036103::cid_5389412

> <Target Name>
DNA repair protein RAD51 homolog 1

> <Target Source Organism According to Curator or DataSource>
Homo sapiens

> <Ki (nM)>


> <IC50 (nM)>
 53000

> <Kd (nM)>


> <EC50 (nM)>


> <kon (M-1-s-1)>


> <koff (s-1)>


> <pH>


> <Temp C>


> <Curation/DataSource>
PubChem

> <Article DOI>


> <BindingDB Entry DOI>
10.7270/Q2QN6558

> <PMID>


> <PubChem AID>
aid1437

> <Patent Number>


> <Authors>
PubChem, PC

> <Date of publication>
11/25/2008

> <Date in BindingDB>
5/31/2011

> <Institution>
PCMD

> <Link to Ligand in BindingDB>
http://www.bindingdb.org/bind/chemsearch/marvin/MolStructure.jsp?monomerid=45326

> <Link to Ligand-Target Pair in BindingDB>
http://www.bindingdb.org/jsp/dbsearch/PrimarySearch_ki.jsp?energyterm=kJ/mole&tag=pol&polymerid=4676&target=DNA+repair+protein+RAD51+homolog+1&column=ki&startPg=0&Increment=50&submit=Search

> <Link to Ligand-Target Pair in BindingDB>
http://www.bindingdb.org/jsp/dbsearch/PrimarySearch_ki.jsp?energyterm=kJ/mole&tag=r21&monomerid=45326&enzyme=DNA+repair+protein+RAD51+homolog+1&column=ki&startPg=0&Increment=50&submit=Search

> <Ligand HET ID in PDB>


> <PDB ID(s) for Ligand-Target Complex>


> <PubChem CID of Ligand>
91896649

> <PubChem SID of Ligand>
252625928

> <ChEBI ID of Ligand>


> <ChEMBL ID of Ligand>


> <DrugBank ID of Ligand>


> <IUPHAR_GRAC ID of Ligand>


> <KEGG ID of Ligand>


> <ZINC ID of Ligand>
ZINC19938421

> <Number of Protein Chains in Target (bigger than 1 implies a multichain complex)>
1

> <BindingDB Target Chain Sequence>
MAMQMQLEANADTSVEEESFGPQPISRLEQCGINANDVKKLEEAGFHTVEAVAYAPKKELINIKGISEAKADKILAEAAKLVPMGFTTATEFHQRRSEIIQITTGSKELDKLLQGGIETGSITEMFGEFRTGKTQICHTLAVTCQLPIDRGGGEGKAMYIDTEGTFRPERLLAVAERYGLSGSDVLDNVAYARAFNTDHQTQLLYQASAMMVESRYALLIVDSATALYRTDYSGRGELSARQMHLARFLRMLLRLADEFGVAVVITNQVVAQVDGAAMFAADPKKPIGGNIIAHASTTRLYLRKGRGETRICKIYDSPCLPEAEAMFAINADGVGDAKD

> <PDB ID(s) of Target Chain>
1N0W,5JZC,5NP7,5NWL,8BQ2,8BR2,8BSC

> <UniProt (SwissProt) Recommended Name of Target Chain>
DNA repair protein RAD51 homolog 1

> <UniProt (SwissProt) Entry Name of Target Chain>
RAD51_HUMAN

> <UniProt (SwissProt) Primary ID of Target Chain>
Q06609

> <UniProt (SwissProt) Secondary ID(s) of Target Chain>
B0FXP0 B2R8T6 Q6FHX9 Q6ZNA8 Q9BV60

> <UniProt (SwissProt) Alternative ID(s) of Target Chain>


> <UniProt (TrEMBL) Submitted Name of Target Chain>


> <UniProt (TrEMBL) Entry Name of Target Chain>


> <UniProt (TrEMBL) Primary ID of Target Chain>


> <UniProt (TrEMBL) Secondary ID(s) of Target Chain>


> <UniProt (TrEMBL) Alternative ID(s) of Target Chain>


$$$$
3236271
  Mrv0541 11251416042D          

 24 26  0  0  0  0            999 V2000
    2.3645    2.2334    0.0000 O   0  0  0  0  0  0  0  0  0  0  0  0
    1.6706   -2.0625    0.0000 O   0  0  0  0  0  0  0  0  0  0  0  0
    3.0789   -3.4709    0.0000 O   0  0  0  0  0  0  0  0  0  0  0  0
    3.7935    2.2334    0.0000 O   0  0  0  0  0  0  0  0  0  0  0  0
    3.0789   -0.6541    0.0000 N   0  0  0  0  0  0  0  0  0  0  0  0
    3.0789    0.9959    0.0000 N   0  0  0  0  0  0  0  0  0  0  0  0
    2.3645   -0.2416    0.0000 C   0  0  0  0  0  0  0  0  0  0  0  0
    3.7935   -0.2416    0.0000 C   0  0  0  0  0  0  0  0  0  0  0  0
    3.7935    0.5834    0.0000 C   0  0  0  0  0  0  0  0  0  0  0  0
    2.3645    0.5834    0.0000 C   0  0  0  0  0  0  0  0  0  0  0  0
    3.0789   -1.4792    0.0000 C   0  0  0  0  0  0  0  0  0  0  0  0
    3.6624   -2.0625    0.0000 C   0  0  0  0  0  0  0  0  0  0  0  0
    2.4956   -2.0625    0.0000 C   0  0  0  0  0  0  0  0  0  0  0  0
    3.0789   -2.6459    0.0000 C   0  0  0  0  0  0  0  0  0  0  0  0
    4.4874   -2.0625    0.0000 C   0  0  0  0  0  0  0  0  0  0  0  0
    3.0789    1.8209    0.0000 C   0  0  0  0  0  0  0  0  0  0  0  0
    4.8999   -2.7770    0.0000 C   0  0  0  0  0  0  0  0  0  0  0  0
    4.8999   -1.3481    0.0000 C   0  0  0  0  0  0  0  0  0  0  0  0
    5.7249   -2.7770    0.0000 C   0  0  0  0  0  0  0  0  0  0  0  0
    5.7249   -1.3481    0.0000 C   0  0  0  0  0  0  0  0  0  0  0  0
    6.1374   -2.0625    0.0000 C   0  0  0  0  0  0  0  0  0  0  0  0
    2.3645    3.0584    0.0000 C   0  0  0  0  0  0  0  0  0  0  0  0
    6.9624   -2.0625    0.0000 C   0  0  0  0  0  0  0  0  0  0  0  0
    1.6500    3.4709    0.0000 C   0  0  0  0  0  0  0  0  0  0  0  0
  1 16  1  0  0  0  0
  1 22  1  0  0  0  0
  2 13  2  0  0  0  0
  3 14  2  0  0  0  0
  4 16  2  0  0  0  0
  5  7  1  0  0  0  0
  5  8  1  0  0  0  0
  5 11  1  0  0  0  0
  6  9  1  0  0  0  0
  6 10  1  0  0  0  0
  6 16  1  0  0  0  0
  7 10  1  0  0  0  0
  8  9  1  0  0  0  0
 11 12  2  0  0  0  0
 11 13  1  0  0  0  0
 12 14  1  0  0  0  0
 12 15  1  0  0  0  0
 13 14  1  0  0  0  0
 15 17  2  0  0  0  0
 15 18  1  0  0  0  0
 17 19  1  0  0  0  0
 18 20  2  0  0  0  0
 19 21  2  0  0  0  0
 20 21  1  0  0  0  0
 21 23  1  0  0  0  0
 22 24  1  0  0  0  0
M  END
> <From>
www.bindingDB.org

> <BindingDB Reactant_set_id>
95196

> <Ligand InChI>
InChI=1S/C18H20N2O4/c1-3-24-18(23)20-10-8-19(9-11-20)15-14(16(21)17(15)22)13-6-4-12(2)5-7-13/h4-7H,3,8-11H2,1-2H3

> <Ligand InChI Key>
ZHCSJVBGPYDOEC-UHFFFAOYSA-N

> <BindingDB MonomerID>
51320

> <BindingDB Ligand Name>
4-[2-(4-methylphenyl)-3,4-dioxo-1-cyclobutenyl]-1-piperazinecarboxylic acid ethyl ester::4-[3,4-diketo-2-(p-tolyl)cyclobuten-1-yl]piperazine-1-carboxylic acid ethyl ester::MLS000094571::SMR000030122::cid_3236271::ethyl 4-[2-(4-methylphenyl)-3,4-bis(oxidanylidene)cyclobuten-1-yl]piperazine-1-carboxylate::ethyl 4-[2-(4-methylphenyl)-3,4-dioxocyclobut-1-en-1-yl]piperazine-1-carboxylate::ethyl 4-[2-(4-methylphenyl)-3,4-dioxocyclobuten-1-yl]piperazine-1-carboxylate

> <Target Name>
DNA repair protein RAD51 homolog 1

> <Target Source Organism According to Curator or DataSource>
Homo sapiens

> <Ki (nM)>


> <IC50 (nM)>
 53000

> <Kd (nM)>


> <EC50 (nM)>


> <kon (M-1-s-1)>


> <koff (s-1)>


> <pH>


> <Temp C>


> <Curation/DataSource>
PubChem

> <Article DOI>


> <BindingDB Entry DOI>
10.7270/Q2QN6558

> <PMID>


> <PubChem AID>
aid1437

> <Patent Number>


> <Authors>
PubChem, PC

> <Date of publication>
11/25/2008

> <Date in BindingDB>
5/31/2011

> <Institution>
PCMD

> <Link to Ligand in BindingDB>
http://www.bindingdb.org/bind/chemsearch/marvin/MolStructure.jsp?monomerid=51320

> <Link to Ligand-Target Pair in BindingDB>
http://www.bindingdb.org/jsp/dbsearch/PrimarySearch_ki.jsp?energyterm=kJ/mole&tag=pol&polymerid=4676&target=DNA+repair+protein+RAD51+homolog+1&column=ki&startPg=0&Increment=50&submit=Search

> <Link to Ligand-Target Pair in BindingDB>
http://www.bindingdb.org/jsp/dbsearch/PrimarySearch_ki.jsp?energyterm=kJ/mole&tag=r21&monomerid=51320&enzyme=DNA+repair+protein+RAD51+homolog+1&column=ki&startPg=0&Increment=50&submit=Search

> <Ligand HET ID in PDB>


> <PDB ID(s) for Ligand-Target Complex>


> <PubChem CID of Ligand>
3236271

> <PubChem SID of Ligand>
252631543

> <ChEBI ID of Ligand>


> <ChEMBL ID of Ligand>


> <DrugBank ID of Ligand>


> <IUPHAR_GRAC ID of Ligand>


> <KEGG ID of Ligand>


> <ZINC ID of Ligand>
ZINC00169565

> <Number of Protein Chains in Target (bigger than 1 implies a multichain complex)>
1

> <BindingDB Target Chain Sequence>
MAMQMQLEANADTSVEEESFGPQPISRLEQCGINANDVKKLEEAGFHTVEAVAYAPKKELINIKGISEAKADKILAEAAKLVPMGFTTATEFHQRRSEIIQITTGSKELDKLLQGGIETGSITEMFGEFRTGKTQICHTLAVTCQLPIDRGGGEGKAMYIDTEGTFRPERLLAVAERYGLSGSDVLDNVAYARAFNTDHQTQLLYQASAMMVESRYALLIVDSATALYRTDYSGRGELSARQMHLARFLRMLLRLADEFGVAVVITNQVVAQVDGAAMFAADPKKPIGGNIIAHASTTRLYLRKGRGETRICKIYDSPCLPEAEAMFAINADGVGDAKD

> <PDB ID(s) of Target Chain>
1N0W,5JZC,5NP7,5NWL,8BQ2,8BR2,8BSC

> <UniProt (SwissProt) Recommended Name of Target Chain>
DNA repair protein RAD51 homolog 1

> <UniProt (SwissProt) Entry Name of Target Chain>
RAD51_HUMAN

> <UniProt (SwissProt) Primary ID of Target Chain>
Q06609

> <UniProt (SwissProt) Secondary ID(s) of Target Chain>
B0FXP0 B2R8T6 Q6FHX9 Q6ZNA8 Q9BV60

> <UniProt (SwissProt) Alternative ID(s) of Target Chain>


> <UniProt (TrEMBL) Submitted Name of Target Chain>


> <UniProt (TrEMBL) Entry Name of Target Chain>


> <UniProt (TrEMBL) Primary ID of Target Chain>


> <UniProt (TrEMBL) Secondary ID(s) of Target Chain>


> <UniProt (TrEMBL) Alternative ID(s) of Target Chain>


$$$$
3240395
  Mrv0541 11251416042D          

 21 23  0  0  0  0            999 V2000
    4.1159   -1.1004    0.0000 O   0  0  0  0  0  0  0  0  0  0  0  0
    4.1159    1.7958    0.0000 O   0  0  0  0  0  0  0  0  0  0  0  0
    5.1662   -1.0813    0.0000 O   0  0  0  0  0  0  0  0  0  0  0  0
    7.6412    0.3477    0.0000 O   0  0  0  0  0  0  0  0  0  0  0  0
    4.3412    0.3477    0.0000 C   0  0  0  0  0  0  0  0  0  0  0  0
    5.1662    0.3477    0.0000 C   0  0  0  0  0  0  0  0  0  0  0  0
    3.8597    1.0116    0.0000 C   0  0  0  0  0  0  0  0  0  0  0  0
    3.8597   -0.3162    0.0000 C   0  0  0  0  0  0  0  0  0  0  0  0
    3.0790    0.7602    0.0000 C   0  0  0  0  0  0  0  0  0  0  0  0
    3.0790   -0.0648    0.0000 C   0  0  0  0  0  0  0  0  0  0  0  0
    5.5787   -0.3668    0.0000 C   0  0  0  0  0  0  0  0  0  0  0  0
    5.5787    1.0621    0.0000 C   0  0  0  0  0  0  0  0  0  0  0  0
    2.3645    1.1727    0.0000 C   0  0  0  0  0  0  0  0  0  0  0  0
    2.3645   -0.4774    0.0000 C   0  0  0  0  0  0  0  0  0  0  0  0
    6.4037   -0.3668    0.0000 C   0  0  0  0  0  0  0  0  0  0  0  0
    6.4037    1.0621    0.0000 C   0  0  0  0  0  0  0  0  0  0  0  0
    1.6500   -0.0648    0.0000 C   0  0  0  0  0  0  0  0  0  0  0  0
    1.6500    0.7602    0.0000 C   0  0  0  0  0  0  0  0  0  0  0  0
    6.8162    0.3477    0.0000 C   0  0  0  0  0  0  0  0  0  0  0  0
    5.5787   -1.7958    0.0000 C   0  0  0  0  0  0  0  0  0  0  0  0
    8.0537    1.0621    0.0000 C   0  0  0  0  0  0  0  0  0  0  0  0
  1  8  2  0  0  0  0
  2  7  2  0  0  0  0
  3 11  1  0  0  0  0
  3 20  1  0  0  0  0
  4 19  1  0  0  0  0
  4 21  1  0  0  0  0
  5  6  1  0  0  0  0
  5  7  1  0  0  0  0
  5  8  1  0  0  0  0
  6 11  2  0  0  0  0
  6 12  1  0  0  0  0
  7  9  1  0  0  0  0
  8 10  1  0  0  0  0
  9 10  2  0  0  0  0
  9 13  1  0  0  0  0
 10 14  1  0  0  0  0
 11 15  1  0  0  0  0
 12 16  2  0  0  0  0
 13 18  2  0  0  0  0
 14 17  2  0  0  0  0
 15 19  2  0  0  0  0
 16 19  1  0  0  0  0
 17 18  1  0  0  0  0
M  END
> <From>
www.bindingDB.org

> <BindingDB Reactant_set_id>
95197

> <Ligand InChI>
InChI=1S/C17H14O4/c1-20-10-7-8-13(14(9-10)21-2)15-16(18)11-5-3-4-6-12(11)17(15)19/h3-9,15H,1-2H3

> <Ligand InChI Key>
QAVWHDUAVOGFOQ-UHFFFAOYSA-N

> <BindingDB MonomerID>
51321

> <BindingDB Ligand Name>
2-(2,4-dimethoxyphenyl)-1H-indene-1,3(2H)-dione::2-(2,4-dimethoxyphenyl)indane-1,3-quinone::2-(2,4-dimethoxyphenyl)indene-1,3-dione::MLS000084657::SMR000019005::cid_3240395

> <Target Name>
DNA repair protein RAD51 homolog 1

> <Target Source Organism According to Curator or DataSource>
Homo sapiens

> <Ki (nM)>


> <IC50 (nM)>
 53000

> <Kd (nM)>


> <EC50 (nM)>


> <kon (M-1-s-1)>


> <koff (s-1)>


> <pH>


> <Temp C>


> <Curation/DataSource>
PubChem

> <Article DOI>


> <BindingDB Entry DOI>
10.7270/Q2QN6558

> <PMID>


> <PubChem AID>
aid1437

> <Patent Number>


> <Authors>
PubChem, PC

> <Date of publication>
11/25/2008

> <Date in BindingDB>
5/31/2011

> <Institution>
PCMD

> <Link to Ligand in BindingDB>
http://www.bindingdb.org/bind/chemsearch/marvin/MolStructure.jsp?monomerid=51321

> <Link to Ligand-Target Pair in BindingDB>
http://www.bindingdb.org/jsp/dbsearch/PrimarySearch_ki.jsp?energyterm=kJ/mole&tag=pol&polymerid=4676&target=DNA+repair+protein+RAD51+homolog+1&column=ki&startPg=0&Increment=50&submit=Search

> <Link to Ligand-Target Pair in BindingDB>
http://www.bindingdb.org/jsp/dbsearch/PrimarySearch_ki.jsp?energyterm=kJ/mole&tag=r21&monomerid=51321&enzyme=DNA+repair+protein+RAD51+homolog+1&column=ki&startPg=0&Increment=50&submit=Search

> <Ligand HET ID in PDB>


> <PDB ID(s) for Ligand-Target Complex>


> <PubChem CID of Ligand>
3240395

> <PubChem SID of Ligand>
252631544

> <ChEBI ID of Ligand>


> <ChEMBL ID of Ligand>


> <DrugBank ID of Ligand>


> <IUPHAR_GRAC ID of Ligand>


> <KEGG ID of Ligand>


> <ZINC ID of Ligand>
ZINC04295819

> <Number of Protein Chains in Target (bigger than 1 implies a multichain complex)>
1

> <BindingDB Target Chain Sequence>
MAMQMQLEANADTSVEEESFGPQPISRLEQCGINANDVKKLEEAGFHTVEAVAYAPKKELINIKGISEAKADKILAEAAKLVPMGFTTATEFHQRRSEIIQITTGSKELDKLLQGGIETGSITEMFGEFRTGKTQICHTLAVTCQLPIDRGGGEGKAMYIDTEGTFRPERLLAVAERYGLSGSDVLDNVAYARAFNTDHQTQLLYQASAMMVESRYALLIVDSATALYRTDYSGRGELSARQMHLARFLRMLLRLADEFGVAVVITNQVVAQVDGAAMFAADPKKPIGGNIIAHASTTRLYLRKGRGETRICKIYDSPCLPEAEAMFAINADGVGDAKD

> <PDB ID(s) of Target Chain>
1N0W,5JZC,5NP7,5NWL,8BQ2,8BR2,8BSC

> <UniProt (SwissProt) Recommended Name of Target Chain>
DNA repair protein RAD51 homolog 1

> <UniProt (SwissProt) Entry Name of Target Chain>
RAD51_HUMAN

> <UniProt (SwissProt) Primary ID of Target Chain>
Q06609

> <UniProt (SwissProt) Secondary ID(s) of Target Chain>
B0FXP0 B2R8T6 Q6FHX9 Q6ZNA8 Q9BV60

> <UniProt (SwissProt) Alternative ID(s) of Target Chain>


> <UniProt (TrEMBL) Submitted Name of Target Chain>


> <UniProt (TrEMBL) Entry Name of Target Chain>


> <UniProt (TrEMBL) Primary ID of Target Chain>


> <UniProt (TrEMBL) Secondary ID(s) of Target Chain>


> <UniProt (TrEMBL) Alternative ID(s) of Target Chain>


$$$$
3243804
  Mrv0541 11251415402D          

 32 36  0  0  0  0            999 V2000
    3.6397    0.6348    0.0000 O   0  0  0  0  0  0  0  0  0  0  0  0
    5.4860    3.9898    0.0000 O   0  0  0  0  0  0  0  0  0  0  0  0
    8.2629   -3.5389    0.0000 O   0  0  0  0  0  0  0  0  0  0  0  0
    4.9935    0.1776    0.0000 N   0  0  0  0  0  0  0  0  0  0  0  0
    6.0833   -1.0613    0.0000 N   0  0  0  0  0  0  0  0  0  0  0  0
    3.7350    3.4956    0.0000 N   0  0  0  0  0  0  0  0  0  0  0  0
    5.8200    2.5681    0.0000 N   0  0  0  0  0  0  0  0  0  0  0  0
    5.8024    0.3398    0.0000 C   0  0  0  0  0  0  0  0  0  0  0  0
    4.7295   -0.6040    0.0000 C   0  0  0  0  0  0  0  0  0  0  0  0
    6.3473   -0.2797    0.0000 C   0  0  0  0  0  0  0  0  0  0  0  0
    5.2744   -1.2235    0.0000 C   0  0  0  0  0  0  0  0  0  0  0  0
    4.1475    2.2261    0.0000 C   0  0  0  0  0  0  0  0  0  0  0  0
    4.7126    1.5786    0.0000 C   0  0  0  0  0  0  0  0  0  0  0  0
    4.4486    0.7970    0.0000 C   0  0  0  0  0  0  0  0  0  0  0  0
    4.4025    3.0106    0.0000 C   0  0  0  0  0  0  0  0  0  0  0  0
    3.3226    2.2261    0.0000 C   0  0  0  0  0  0  0  0  0  0  0  0
    3.0675    3.0106    0.0000 C   0  0  0  0  0  0  0  0  0  0  0  0
    6.6282   -1.6807    0.0000 C   0  0  0  0  0  0  0  0  0  0  0  0
    5.5545    1.7509    0.0000 C   0  0  0  0  0  0  0  0  0  0  0  0
    5.2402    3.2023    0.0000 C   0  0  0  0  0  0  0  0  0  0  0  0
    2.7574    1.5786    0.0000 C   0  0  0  0  0  0  0  0  0  0  0  0
    3.7350    4.3205    0.0000 C   0  0  0  0  0  0  0  0  0  0  0  0
    2.2299    3.2023    0.0000 C   0  0  0  0  0  0  0  0  0  0  0  0
    6.3642   -2.4623    0.0000 C   0  0  0  0  0  0  0  0  0  0  0  0
    7.4371   -1.5185    0.0000 C   0  0  0  0  0  0  0  0  0  0  0  0
    6.6264    2.7428    0.0000 C   0  0  0  0  0  0  0  0  0  0  0  0
    1.9155    1.7509    0.0000 C   0  0  0  0  0  0  0  0  0  0  0  0
    1.6500    2.5681    0.0000 C   0  0  0  0  0  0  0  0  0  0  0  0
    6.9091   -3.0817    0.0000 C   0  0  0  0  0  0  0  0  0  0  0  0
    7.9820   -2.1379    0.0000 C   0  0  0  0  0  0  0  0  0  0  0  0
    7.7180   -2.9195    0.0000 C   0  0  0  0  0  0  0  0  0  0  0  0
    7.9989   -4.3205    0.0000 C   0  0  0  0  0  0  0  0  0  0  0  0
  1 14  2  0  0  0  0
  2 20  2  0  0  0  0
  3 31  1  0  0  0  0
  3 32  1  0  0  0  0
  4  8  1  0  0  0  0
  4  9  1  0  0  0  0
  4 14  1  0  0  0  0
  5 10  1  0  0  0  0
  5 11  1  0  0  0  0
  5 18  1  0  0  0  0
  6 15  1  0  0  0  0
  6 17  1  0  0  0  0
  6 22  1  0  0  0  0
  7 19  1  0  0  0  0
  7 20  1  0  0  0  0
  7 26  1  0  0  0  0
  8 10  1  0  0  0  0
  9 11  1  0  0  0  0
 12 13  1  0  0  0  0
 12 15  2  0  0  0  0
 12 16  1  0  0  0  0
 13 14  1  0  0  0  0
 13 19  2  0  0  0  0
 15 20  1  0  0  0  0
 16 17  1  0  0  0  0
 16 21  2  0  0  0  0
 17 23  2  0  0  0  0
 18 24  2  0  0  0  0
 18 25  1  0  0  0  0
 21 27  1  0  0  0  0
 23 28  1  0  0  0  0
 24 29  1  0  0  0  0
 25 30  2  0  0  0  0
 27 28  2  0  0  0  0
 29 31  2  0  0  0  0
 30 31  1  0  0  0  0
M  END
> <From>
www.bindingDB.org

> <BindingDB Reactant_set_id>
95198

> <Ligand InChI>
InChI=1S/C25H26N4O3/c1-26-16-20(22-19-6-4-5-7-21(19)27(2)23(22)25(26)31)24(30)29-14-12-28(13-15-29)17-8-10-18(32-3)11-9-17/h4-11,16H,12-15H2,1-3H3

> <Ligand InChI Key>
WFRSGRDLLPZPQH-UHFFFAOYSA-N

> <BindingDB MonomerID>
39401

> <BindingDB Ligand Name>
4-[4-(4-methoxyphenyl)piperazin-1-yl]carbonyl-2,9-dimethyl-pyrido[3,4-b]indol-1-one::4-[4-(4-methoxyphenyl)piperazine-1-carbonyl]-2,9-dimethyl-beta-carbolin-1-one::4-[4-(4-methoxyphenyl)piperazine-1-carbonyl]-2,9-dimethylpyrido[3,4-b]indol-1-one::4-[[4-(4-methoxyphenyl)-1-piperazinyl]-oxomethyl]-2,9-dimethyl-1-pyrido[3,4-b]indolone::4-{[4-(4-methoxyphenyl)piperazin-1-yl]carbonyl}-2,9-dimethyl-2,9-dihydro-1H-beta-carbolin-1-one::MLS000086987::SMR000023210::cid_3243804

> <Target Name>
DNA repair protein RAD51 homolog 1

> <Target Source Organism According to Curator or DataSource>
Homo sapiens

> <Ki (nM)>


> <IC50 (nM)>
 53000

> <Kd (nM)>


> <EC50 (nM)>


> <kon (M-1-s-1)>


> <koff (s-1)>


> <pH>


> <Temp C>


> <Curation/DataSource>
PubChem

> <Article DOI>


> <BindingDB Entry DOI>
10.7270/Q2QN6558

> <PMID>


> <PubChem AID>
aid1437

> <Patent Number>


> <Authors>
PubChem, PC

> <Date of publication>
11/25/2008

> <Date in BindingDB>
5/31/2011

> <Institution>
PCMD

> <Link to Ligand in BindingDB>
http://www.bindingdb.org/bind/chemsearch/marvin/MolStructure.jsp?monomerid=39401

> <Link to Ligand-Target Pair in BindingDB>
http://www.bindingdb.org/jsp/dbsearch/PrimarySearch_ki.jsp?energyterm=kJ/mole&tag=pol&polymerid=4676&target=DNA+repair+protein+RAD51+homolog+1&column=ki&startPg=0&Increment=50&submit=Search

> <Link to Ligand-Target Pair in BindingDB>
http://www.bindingdb.org/jsp/dbsearch/PrimarySearch_ki.jsp?energyterm=kJ/mole&tag=r21&monomerid=39401&enzyme=DNA+repair+protein+RAD51+homolog+1&column=ki&startPg=0&Increment=50&submit=Search

> <Ligand HET ID in PDB>


> <PDB ID(s) for Ligand-Target Complex>


> <PubChem CID of Ligand>
3243804

> <PubChem SID of Ligand>
252620294

> <ChEBI ID of Ligand>


> <ChEMBL ID of Ligand>


> <DrugBank ID of Ligand>


> <IUPHAR_GRAC ID of Ligand>


> <KEGG ID of Ligand>


> <ZINC ID of Ligand>
ZINC04035351

> <Number of Protein Chains in Target (bigger than 1 implies a multichain complex)>
1

> <BindingDB Target Chain Sequence>
MAMQMQLEANADTSVEEESFGPQPISRLEQCGINANDVKKLEEAGFHTVEAVAYAPKKELINIKGISEAKADKILAEAAKLVPMGFTTATEFHQRRSEIIQITTGSKELDKLLQGGIETGSITEMFGEFRTGKTQICHTLAVTCQLPIDRGGGEGKAMYIDTEGTFRPERLLAVAERYGLSGSDVLDNVAYARAFNTDHQTQLLYQASAMMVESRYALLIVDSATALYRTDYSGRGELSARQMHLARFLRMLLRLADEFGVAVVITNQVVAQVDGAAMFAADPKKPIGGNIIAHASTTRLYLRKGRGETRICKIYDSPCLPEAEAMFAINADGVGDAKD

> <PDB ID(s) of Target Chain>
1N0W,5JZC,5NP7,5NWL,8BQ2,8BR2,8BSC

> <UniProt (SwissProt) Recommended Name of Target Chain>
DNA repair protein RAD51 homolog 1

> <UniProt (SwissProt) Entry Name of Target Chain>
RAD51_HUMAN

> <UniProt (SwissProt) Primary ID of Target Chain>
Q06609

> <UniProt (SwissProt) Secondary ID(s) of Target Chain>
B0FXP0 B2R8T6 Q6FHX9 Q6ZNA8 Q9BV60

> <UniProt (SwissProt) Alternative ID(s) of Target Chain>


> <UniProt (TrEMBL) Submitted Name of Target Chain>


> <UniProt (TrEMBL) Entry Name of Target Chain>


> <UniProt (TrEMBL) Primary ID of Target Chain>


> <UniProt (TrEMBL) Secondary ID(s) of Target Chain>


> <UniProt (TrEMBL) Alternative ID(s) of Target Chain>


$$$$
3244043
  Mrv0541 11251416042D          

 25 28  0  0  1  0            999 V2000
    8.4481   -2.4379    0.0000 O   0  0  0  0  0  0  0  0  0  0  0  0
    8.4481   -1.1030    0.0000 O   0  0  0  0  0  0  0  0  0  0  0  0
    5.4112   -0.3023    0.0000 O   0  0  0  0  0  0  0  0  0  0  0  0
    5.0756   -2.4850    0.0000 O   0  0  0  0  0  0  0  0  0  0  0  0
    2.4038    2.1493    0.0000 O   0  0  0  0  0  0  0  0  0  0  0  0
    6.3131   -1.7705    0.0000 N   0  0  0  0  0  0  0  0  0  0  0  0
    4.7981    0.2497    0.0000 N   0  0  0  0  0  0  0  0  0  0  0  0
    7.9632   -1.7705    0.0000 C   0  0  0  0  0  0  0  0  0  0  0  0
    7.5506   -1.0559    0.0000 C   0  0  0  0  0  0  0  0  0  0  0  0
    7.5506   -2.4850    0.0000 C   0  0  0  0  0  0  0  0  0  0  0  0
    6.7256   -1.0559    0.0000 C   0  0  0  0  0  0  0  0  0  0  0  0
    6.7256   -2.4850    0.0000 C   0  0  0  0  0  0  0  0  0  0  0  0
    9.2328   -1.3580    0.0000 C   0  0  0  0  0  0  0  0  0  0  0  0
    9.2328   -2.1830    0.0000 C   0  0  0  0  0  0  0  0  0  0  0  0
    5.4881   -1.7705    0.0000 C   0  0  0  0  0  0  0  0  0  0  0  0
    5.0756   -1.0559    0.0000 C   0  0  0  0  0  0  0  0  0  0  0  0
    4.2551   -0.9697    0.0000 C   0  0  0  0  0  0  0  0  0  0  0  0
    4.0836   -0.1628    0.0000 C   0  0  0  0  0  0  0  0  0  0  0  0
    3.3299    0.1728    0.0000 C   0  0  0  0  0  0  0  0  0  0  0  0
    3.2436    0.9933    0.0000 C   0  0  0  0  0  0  0  0  0  0  0  0
    2.6624   -0.3121    0.0000 C   0  0  0  0  0  0  0  0  0  0  0  0
    2.4900    1.3289    0.0000 C   0  0  0  0  0  0  0  0  0  0  0  0
    1.9088    0.0234    0.0000 C   0  0  0  0  0  0  0  0  0  0  0  0
    1.8225    0.8440    0.0000 C   0  0  0  0  0  0  0  0  0  0  0  0
    1.6500    2.4850    0.0000 C   0  0  0  0  0  0  0  0  0  0  0  0
  1  8  1  0  0  0  0
  1 14  1  0  0  0  0
  2  8  1  0  0  0  0
  2 13  1  0  0  0  0
  3  7  1  0  0  0  0
  3 16  1  0  0  0  0
  4 15  2  0  0  0  0
  5 22  1  0  0  0  0
  5 25  1  0  0  0  0
  6 11  1  0  0  0  0
  6 12  1  0  0  0  0
  6 15  1  0  0  0  0
  7 18  2  0  0  0  0
  8  9  1  0  0  0  0
  8 10  1  0  0  0  0
  9 11  1  0  0  0  0
 10 12  1  0  0  0  0
 13 14  1  0  0  0  0
 15 16  1  0  0  0  0
 16 17  1  0  0  0  0
 17 18  1  0  0  0  0
 18 19  1  0  0  0  0
 19 20  2  0  0  0  0
 19 21  1  0  0  0  0
 20 22  1  0  0  0  0
 21 23  2  0  0  0  0
 22 24  2  0  0  0  0
 23 24  1  0  0  0  0
M  END
> <From>
www.bindingDB.org

> <BindingDB Reactant_set_id>
95199

> <Ligand InChI>
InChI=1S/C18H22N2O5/c1-22-14-4-2-3-13(11-14)15-12-16(25-19-15)17(21)20-7-5-18(6-8-20)23-9-10-24-18/h2-4,11,16H,5-10,12H2,1H3

> <Ligand InChI Key>
WVBLKJAJBNESOW-UHFFFAOYSA-N

> <BindingDB MonomerID>
51322

> <BindingDB Ligand Name>
1,4-dioxa-8-azaspiro[4.5]decan-8-yl-[3-(3-methoxyphenyl)-2-isoxazolin-5-yl]methanone::1,4-dioxa-8-azaspiro[4.5]decan-8-yl-[3-(3-methoxyphenyl)-4,5-dihydro-1,2-oxazol-5-yl]methanone::1,4-dioxa-8-azaspiro[4.5]decan-8-yl-[3-(3-methoxyphenyl)-4,5-dihydroisoxazol-5-yl]methanone::8-{[3-(3-methoxyphenyl)-4,5-dihydroisoxazol-5-yl]carbonyl}-1,4-dioxa-8-azaspiro[4.5]decane::MLS000092686::SMR000028377::cid_3244043

> <Target Name>
DNA repair protein RAD51 homolog 1

> <Target Source Organism According to Curator or DataSource>
Homo sapiens

> <Ki (nM)>


> <IC50 (nM)>
 53000

> <Kd (nM)>


> <EC50 (nM)>


> <kon (M-1-s-1)>


> <koff (s-1)>


> <pH>


> <Temp C>


> <Curation/DataSource>
PubChem

> <Article DOI>


> <BindingDB Entry DOI>
10.7270/Q2QN6558

> <PMID>


> <PubChem AID>
aid1437

> <Patent Number>


> <Authors>
PubChem, PC

> <Date of publication>
11/25/2008

> <Date in BindingDB>
5/31/2011

> <Institution>
PCMD

> <Link to Ligand in BindingDB>
http://www.bindingdb.org/bind/chemsearch/marvin/MolStructure.jsp?monomerid=51322

> <Link to Ligand-Target Pair in BindingDB>
http://www.bindingdb.org/jsp/dbsearch/PrimarySearch_ki.jsp?energyterm=kJ/mole&tag=pol&polymerid=4676&target=DNA+repair+protein+RAD51+homolog+1&column=ki&startPg=0&Increment=50&submit=Search

> <Link to Ligand-Target Pair in BindingDB>
http://www.bindingdb.org/jsp/dbsearch/PrimarySearch_ki.jsp?energyterm=kJ/mole&tag=r21&monomerid=51322&enzyme=DNA+repair+protein+RAD51+homolog+1&column=ki&startPg=0&Increment=50&submit=Search

> <Ligand HET ID in PDB>


> <PDB ID(s) for Ligand-Target Complex>


> <PubChem CID of Ligand>
3244043

> <PubChem SID of Ligand>
252631545

> <ChEBI ID of Ligand>


> <ChEMBL ID of Ligand>


> <DrugBank ID of Ligand>


> <IUPHAR_GRAC ID of Ligand>


> <KEGG ID of Ligand>


> <ZINC ID of Ligand>
ZINC02390194

> <Number of Protein Chains in Target (bigger than 1 implies a multichain complex)>
1

> <BindingDB Target Chain Sequence>
MAMQMQLEANADTSVEEESFGPQPISRLEQCGINANDVKKLEEAGFHTVEAVAYAPKKELINIKGISEAKADKILAEAAKLVPMGFTTATEFHQRRSEIIQITTGSKELDKLLQGGIETGSITEMFGEFRTGKTQICHTLAVTCQLPIDRGGGEGKAMYIDTEGTFRPERLLAVAERYGLSGSDVLDNVAYARAFNTDHQTQLLYQASAMMVESRYALLIVDSATALYRTDYSGRGELSARQMHLARFLRMLLRLADEFGVAVVITNQVVAQVDGAAMFAADPKKPIGGNIIAHASTTRLYLRKGRGETRICKIYDSPCLPEAEAMFAINADGVGDAKD

> <PDB ID(s) of Target Chain>
1N0W,5JZC,5NP7,5NWL,8BQ2,8BR2,8BSC

> <UniProt (SwissProt) Recommended Name of Target Chain>
DNA repair protein RAD51 homolog 1

> <UniProt (SwissProt) Entry Name of Target Chain>
RAD51_HUMAN

> <UniProt (SwissProt) Primary ID of Target Chain>
Q06609

> <UniProt (SwissProt) Secondary ID(s) of Target Chain>
B0FXP0 B2R8T6 Q6FHX9 Q6ZNA8 Q9BV60

> <UniProt (SwissProt) Alternative ID(s) of Target Chain>


> <UniProt (TrEMBL) Submitted Name of Target Chain>


> <UniProt (TrEMBL) Entry Name of Target Chain>


> <UniProt (TrEMBL) Primary ID of Target Chain>


> <UniProt (TrEMBL) Secondary ID(s) of Target Chain>


> <UniProt (TrEMBL) Alternative ID(s) of Target Chain>


$$$$
3245768
  Mrv0541 11251416042D          

 25 26  0  0  1  0            999 V2000
    4.5080   -2.6813    0.0000 S   0  0  0  0  0  0  0  0  0  0  0  0
    2.3645   -0.6188    0.0000 O   0  0  0  0  0  0  0  0  0  0  0  0
    5.3330   -2.6813    0.0000 O   0  0  0  0  0  0  0  0  0  0  0  0
    3.6830   -2.6813    0.0000 O   0  0  0  0  0  0  0  0  0  0  0  0
    2.3645    3.5063    0.0000 O   0  0  0  0  0  0  0  0  0  0  0  0
    3.7935    3.5063    0.0000 O   0  0  0  0  0  0  0  0  0  0  0  0
    4.5080   -1.8563    0.0000 N   0  0  0  0  0  0  0  0  0  0  0  0
    3.0790    0.6188    0.0000 N   0  0  0  0  0  0  0  0  0  0  0  0
    3.0790    2.2688    0.0000 N   0  0  0  0  0  0  0  0  0  0  0  0
    3.7935   -0.6188    0.0000 C   0  0  0  0  0  0  0  0  0  0  0  0
    3.7935   -1.4438    0.0000 C   0  0  0  0  0  0  0  0  0  0  0  0
    4.5080   -0.2063    0.0000 C   0  0  0  0  0  0  0  0  0  0  0  0
    5.2224   -0.6188    0.0000 C   0  0  0  0  0  0  0  0  0  0  0  0
    5.2224   -1.4438    0.0000 C   0  0  0  0  0  0  0  0  0  0  0  0
    3.0790   -0.2063    0.0000 C   0  0  0  0  0  0  0  0  0  0  0  0
    3.7935    1.0313    0.0000 C   0  0  0  0  0  0  0  0  0  0  0  0
    2.3645    1.0313    0.0000 C   0  0  0  0  0  0  0  0  0  0  0  0
    3.7935    1.8563    0.0000 C   0  0  0  0  0  0  0  0  0  0  0  0
    2.3645    1.8563    0.0000 C   0  0  0  0  0  0  0  0  0  0  0  0
    4.5080   -3.5063    0.0000 C   0  0  0  0  0  0  0  0  0  0  0  0
    5.2224   -3.9188    0.0000 C   0  0  0  0  0  0  0  0  0  0  0  0
    3.0790    3.0938    0.0000 C   0  0  0  0  0  0  0  0  0  0  0  0
    5.2224   -4.7439    0.0000 C   0  0  0  0  0  0  0  0  0  0  0  0
    2.3645    4.3313    0.0000 C   0  0  0  0  0  0  0  0  0  0  0  0
    1.6500    4.7439    0.0000 C   0  0  0  0  0  0  0  0  0  0  0  0
  1  3  2  0  0  0  0
  1  4  2  0  0  0  0
  1  7  1  0  0  0  0
  1 20  1  0  0  0  0
  2 15  2  0  0  0  0
  5 22  1  0  0  0  0
  5 24  1  0  0  0  0
  6 22  2  0  0  0  0
  7 11  1  0  0  0  0
  7 14  1  0  0  0  0
  8 15  1  0  0  0  0
  8 16  1  0  0  0  0
  8 17  1  0  0  0  0
  9 18  1  0  0  0  0
  9 19  1  0  0  0  0
  9 22  1  0  0  0  0
 10 11  1  0  0  0  0
 10 12  1  0  0  0  0
 10 15  1  0  0  0  0
 12 13  1  0  0  0  0
 13 14  1  0  0  0  0
 16 18  1  0  0  0  0
 17 19  1  0  0  0  0
 20 21  1  0  0  0  0
 21 23  1  0  0  0  0
 24 25  1  0  0  0  0
M  END
> <From>
www.bindingDB.org

> <BindingDB Reactant_set_id>
95200

> <Ligand InChI>
InChI=1S/C16H29N3O5S/c1-3-12-25(22,23)19-7-5-6-14(13-19)15(20)17-8-10-18(11-9-17)16(21)24-4-2/h14H,3-13H2,1-2H3

> <Ligand InChI Key>
NJSQBORPWAXBHO-UHFFFAOYSA-N

> <BindingDB MonomerID>
51323

> <BindingDB Ligand Name>
4-(1-propylsulfonylnipecotoyl)piperazine-1-carboxylic acid ethyl ester::4-[oxo-(1-propylsulfonyl-3-piperidinyl)methyl]-1-piperazinecarboxylic acid ethyl ester::MLS000046626::SMR000032637::cid_3245768::ethyl 4-(1-propylsulfonylpiperidin-3-yl)carbonylpiperazine-1-carboxylate::ethyl 4-(1-propylsulfonylpiperidine-3-carbonyl)piperazine-1-carboxylate::ethyl 4-{[1-(propylsulfonyl)piperidin-3-yl]carbonyl}piperazine-1-carboxylate

> <Target Name>
DNA repair protein RAD51 homolog 1

> <Target Source Organism According to Curator or DataSource>
Homo sapiens

> <Ki (nM)>


> <IC50 (nM)>
 53000

> <Kd (nM)>


> <EC50 (nM)>


> <kon (M-1-s-1)>


> <koff (s-1)>


> <pH>


> <Temp C>


> <Curation/DataSource>
PubChem

> <Article DOI>


> <BindingDB Entry DOI>
10.7270/Q2QN6558

> <PMID>


> <PubChem AID>
aid1437

> <Patent Number>


> <Authors>
PubChem, PC

> <Date of publication>
11/25/2008

> <Date in BindingDB>
5/31/2011

> <Institution>
PCMD

> <Link to Ligand in BindingDB>
http://www.bindingdb.org/bind/chemsearch/marvin/MolStructure.jsp?monomerid=51323

> <Link to Ligand-Target Pair in BindingDB>
http://www.bindingdb.org/jsp/dbsearch/PrimarySearch_ki.jsp?energyterm=kJ/mole&tag=pol&polymerid=4676&target=DNA+repair+protein+RAD51+homolog+1&column=ki&startPg=0&Increment=50&submit=Search

> <Link to Ligand-Target Pair in BindingDB>
http://www.bindingdb.org/jsp/dbsearch/PrimarySearch_ki.jsp?energyterm=kJ/mole&tag=r21&monomerid=51323&enzyme=DNA+repair+protein+RAD51+homolog+1&column=ki&startPg=0&Increment=50&submit=Search

> <Ligand HET ID in PDB>


> <PDB ID(s) for Ligand-Target Complex>


> <PubChem CID of Ligand>
3245768

> <PubChem SID of Ligand>
252631546

> <ChEBI ID of Ligand>


> <ChEMBL ID of Ligand>


> <DrugBank ID of Ligand>


> <IUPHAR_GRAC ID of Ligand>


> <KEGG ID of Ligand>


> <ZINC ID of Ligand>
ZINC04295482

> <Number of Protein Chains in Target (bigger than 1 implies a multichain complex)>
1

> <BindingDB Target Chain Sequence>
MAMQMQLEANADTSVEEESFGPQPISRLEQCGINANDVKKLEEAGFHTVEAVAYAPKKELINIKGISEAKADKILAEAAKLVPMGFTTATEFHQRRSEIIQITTGSKELDKLLQGGIETGSITEMFGEFRTGKTQICHTLAVTCQLPIDRGGGEGKAMYIDTEGTFRPERLLAVAERYGLSGSDVLDNVAYARAFNTDHQTQLLYQASAMMVESRYALLIVDSATALYRTDYSGRGELSARQMHLARFLRMLLRLADEFGVAVVITNQVVAQVDGAAMFAADPKKPIGGNIIAHASTTRLYLRKGRGETRICKIYDSPCLPEAEAMFAINADGVGDAKD

> <PDB ID(s) of Target Chain>
1N0W,5JZC,5NP7,5NWL,8BQ2,8BR2,8BSC

> <UniProt (SwissProt) Recommended Name of Target Chain>
DNA repair protein RAD51 homolog 1

> <UniProt (SwissProt) Entry Name of Target Chain>
RAD51_HUMAN

> <UniProt (SwissProt) Primary ID of Target Chain>
Q06609

> <UniProt (SwissProt) Secondary ID(s) of Target Chain>
B0FXP0 B2R8T6 Q6FHX9 Q6ZNA8 Q9BV60

> <UniProt (SwissProt) Alternative ID(s) of Target Chain>


> <UniProt (TrEMBL) Submitted Name of Target Chain>


> <UniProt (TrEMBL) Entry Name of Target Chain>


> <UniProt (TrEMBL) Primary ID of Target Chain>


> <UniProt (TrEMBL) Secondary ID(s) of Target Chain>


> <UniProt (TrEMBL) Alternative ID(s) of Target Chain>


$$$$
1091686
  Mrv0541 11251415392D          

 27 30  0  0  0  0            999 V2000
    9.2624    1.4295    0.0000 O   0  0  0  0  0  0  0  0  0  0  0  0
    7.8335    1.4295    0.0000 O   0  0  0  0  0  0  0  0  0  0  0  0
    5.6900    1.0170    0.0000 O   0  0  0  0  0  0  0  0  0  0  0  0
    4.9756   -0.2205    0.0000 N   0  0  0  0  0  0  0  0  0  0  0  0
    2.9554    0.4695    0.0000 N   0  0  0  0  0  0  0  0  0  0  0  0
    3.5074   -0.1436    0.0000 N   0  0  0  0  0  0  0  0  0  0  0  0
    4.1748    1.0124    0.0000 N   0  0  0  0  0  0  0  0  0  0  0  0
    3.3679    1.1840    0.0000 N   0  0  0  0  0  0  0  0  0  0  0  0
    8.5479    0.1920    0.0000 C   0  0  0  0  0  0  0  0  0  0  0  0
    7.8335   -0.2205    0.0000 C   0  0  0  0  0  0  0  0  0  0  0  0
    9.9769    0.1920    0.0000 C   0  0  0  0  0  0  0  0  0  0  0  0
    9.2624   -0.2205    0.0000 C   0  0  0  0  0  0  0  0  0  0  0  0
    9.9769    1.0170    0.0000 C   0  0  0  0  0  0  0  0  0  0  0  0
    7.1190    0.1920    0.0000 C   0  0  0  0  0  0  0  0  0  0  0  0
    6.4046   -0.2205    0.0000 C   0  0  0  0  0  0  0  0  0  0  0  0
    7.8335   -1.0455    0.0000 C   0  0  0  0  0  0  0  0  0  0  0  0
    8.5479    1.0170    0.0000 C   0  0  0  0  0  0  0  0  0  0  0  0
   10.7144   -0.2492    0.0000 C   0  0  0  0  0  0  0  0  0  0  0  0
    6.4046   -1.0455    0.0000 C   0  0  0  0  0  0  0  0  0  0  0  0
    7.1190   -1.4580    0.0000 C   0  0  0  0  0  0  0  0  0  0  0  0
   10.7144    1.4580    0.0000 C   0  0  0  0  0  0  0  0  0  0  0  0
    5.6900    0.1920    0.0000 C   0  0  0  0  0  0  0  0  0  0  0  0
   11.4619    0.1748    0.0000 C   0  0  0  0  0  0  0  0  0  0  0  0
   11.4619    1.0341    0.0000 C   0  0  0  0  0  0  0  0  0  0  0  0
    2.1349    0.3832    0.0000 C   0  0  0  0  0  0  0  0  0  0  0  0
    4.2611    0.1920    0.0000 C   0  0  0  0  0  0  0  0  0  0  0  0
    1.6500    1.0507    0.0000 C   0  0  0  0  0  0  0  0  0  0  0  0
  1 13  1  0  0  0  0
  1 17  1  0  0  0  0
  2 17  2  0  0  0  0
  3 22  2  0  0  0  0
  4 22  1  0  0  0  0
  4 26  1  0  0  0  0
  5  6  1  0  0  0  0
  5  8  1  0  0  0  0
  5 25  1  0  0  0  0
  6 26  2  0  0  0  0
  7  8  2  0  0  0  0
  7 26  1  0  0  0  0
  9 10  1  0  0  0  0
  9 12  2  0  0  0  0
  9 17  1  0  0  0  0
 10 14  2  0  0  0  0
 10 16  1  0  0  0  0
 11 12  1  0  0  0  0
 11 13  1  0  0  0  0
 11 18  2  0  0  0  0
 13 21  2  0  0  0  0
 14 15  1  0  0  0  0
 15 19  2  0  0  0  0
 15 22  1  0  0  0  0
 16 20  2  0  0  0  0
 18 23  1  0  0  0  0
 19 20  1  0  0  0  0
 21 24  1  0  0  0  0
 23 24  2  0  0  0  0
 25 27  1  0  0  0  0
M  END
> <From>
www.bindingDB.org

> <BindingDB Reactant_set_id>
95201

> <Ligand InChI>
InChI=1S/C19H15N5O3/c1-2-24-22-19(21-23-24)20-17(25)14-8-5-7-12(10-14)15-11-13-6-3-4-9-16(13)27-18(15)26/h3-11H,2H2,1H3,(H,20,22,25)

> <Ligand InChI Key>
CXYVFMZGRKGLRW-UHFFFAOYSA-N

> <BindingDB MonomerID>
38621

> <BindingDB Ligand Name>
MLS000050598::N-(2-ethyl-1,2,3,4-tetrazol-5-yl)-3-(2-oxidanylidenechromen-3-yl)benzamide::N-(2-ethyl-2H-tetrazol-5-yl)-3-(2-oxo-2H-chromen-3-yl)benzamide::N-(2-ethyl-5-tetrazolyl)-3-(2-oxo-1-benzopyran-3-yl)benzamide::N-(2-ethyltetrazol-5-yl)-3-(2-ketochromen-3-yl)benzamide::N-(2-ethyltetrazol-5-yl)-3-(2-oxochromen-3-yl)benzamide::SMR000077721::cid_1091686

> <Target Name>
DNA repair protein RAD51 homolog 1

> <Target Source Organism According to Curator or DataSource>
Homo sapiens

> <Ki (nM)>


> <IC50 (nM)>
 53000

> <Kd (nM)>


> <EC50 (nM)>


> <kon (M-1-s-1)>


> <koff (s-1)>


> <pH>


> <Temp C>


> <Curation/DataSource>
PubChem

> <Article DOI>


> <BindingDB Entry DOI>
10.7270/Q2QN6558

> <PMID>


> <PubChem AID>
aid1437

> <Patent Number>


> <Authors>
PubChem, PC

> <Date of publication>
11/25/2008

> <Date in BindingDB>
5/31/2011

> <Institution>
PCMD

> <Link to Ligand in BindingDB>
http://www.bindingdb.org/bind/chemsearch/marvin/MolStructure.jsp?monomerid=38621

> <Link to Ligand-Target Pair in BindingDB>
http://www.bindingdb.org/jsp/dbsearch/PrimarySearch_ki.jsp?energyterm=kJ/mole&tag=pol&polymerid=4676&target=DNA+repair+protein+RAD51+homolog+1&column=ki&startPg=0&Increment=50&submit=Search

> <Link to Ligand-Target Pair in BindingDB>
http://www.bindingdb.org/jsp/dbsearch/PrimarySearch_ki.jsp?energyterm=kJ/mole&tag=r21&monomerid=38621&enzyme=DNA+repair+protein+RAD51+homolog+1&column=ki&startPg=0&Increment=50&submit=Search

> <Ligand HET ID in PDB>


> <PDB ID(s) for Ligand-Target Complex>


> <PubChem CID of Ligand>
1091686

> <PubChem SID of Ligand>
252619526

> <ChEBI ID of Ligand>


> <ChEMBL ID of Ligand>


> <DrugBank ID of Ligand>


> <IUPHAR_GRAC ID of Ligand>


> <KEGG ID of Ligand>


> <ZINC ID of Ligand>
ZINC00812128

> <Number of Protein Chains in Target (bigger than 1 implies a multichain complex)>
1

> <BindingDB Target Chain Sequence>
MAMQMQLEANADTSVEEESFGPQPISRLEQCGINANDVKKLEEAGFHTVEAVAYAPKKELINIKGISEAKADKILAEAAKLVPMGFTTATEFHQRRSEIIQITTGSKELDKLLQGGIETGSITEMFGEFRTGKTQICHTLAVTCQLPIDRGGGEGKAMYIDTEGTFRPERLLAVAERYGLSGSDVLDNVAYARAFNTDHQTQLLYQASAMMVESRYALLIVDSATALYRTDYSGRGELSARQMHLARFLRMLLRLADEFGVAVVITNQVVAQVDGAAMFAADPKKPIGGNIIAHASTTRLYLRKGRGETRICKIYDSPCLPEAEAMFAINADGVGDAKD

> <PDB ID(s) of Target Chain>
1N0W,5JZC,5NP7,5NWL,8BQ2,8BR2,8BSC

> <UniProt (SwissProt) Recommended Name of Target Chain>
DNA repair protein RAD51 homolog 1

> <UniProt (SwissProt) Entry Name of Target Chain>
RAD51_HUMAN

> <UniProt (SwissProt) Primary ID of Target Chain>
Q06609

> <UniProt (SwissProt) Secondary ID(s) of Target Chain>
B0FXP0 B2R8T6 Q6FHX9 Q6ZNA8 Q9BV60

> <UniProt (SwissProt) Alternative ID(s) of Target Chain>


> <UniProt (TrEMBL) Submitted Name of Target Chain>


> <UniProt (TrEMBL) Entry Name of Target Chain>


> <UniProt (TrEMBL) Primary ID of Target Chain>


> <UniProt (TrEMBL) Secondary ID(s) of Target Chain>


> <UniProt (TrEMBL) Alternative ID(s) of Target Chain>


$$$$
11316
  Mrv0541 11251416042D          

 12 13  0  0  0  0            999 V2000
    3.5219   -1.2518    0.0000 Br  0  0  0  0  0  0  0  0  0  0  0  0
    2.0929   -0.4268    0.0000 O   0  0  0  0  0  0  0  0  0  0  0  0
    4.2364   -0.0143    0.0000 C   0  0  0  0  0  0  0  0  0  0  0  0
    4.2364    0.8107    0.0000 C   0  0  0  0  0  0  0  0  0  0  0  0
    3.5219   -0.4268    0.0000 C   0  0  0  0  0  0  0  0  0  0  0  0
    3.5219    1.2232    0.0000 C   0  0  0  0  0  0  0  0  0  0  0  0
    4.9739   -0.4554    0.0000 C   0  0  0  0  0  0  0  0  0  0  0  0
    4.9739    1.2518    0.0000 C   0  0  0  0  0  0  0  0  0  0  0  0
    2.8075   -0.0143    0.0000 C   0  0  0  0  0  0  0  0  0  0  0  0
    2.8075    0.8107    0.0000 C   0  0  0  0  0  0  0  0  0  0  0  0
    5.7214   -0.0314    0.0000 C   0  0  0  0  0  0  0  0  0  0  0  0
    5.7214    0.8279    0.0000 C   0  0  0  0  0  0  0  0  0  0  0  0
  1  5  1  0  0  0  0
  2  9  1  0  0  0  0
  3  4  1  0  0  0  0
  3  5  2  0  0  0  0
  3  7  1  0  0  0  0
  4  6  2  0  0  0  0
  4  8  1  0  0  0  0
  5  9  1  0  0  0  0
  6 10  1  0  0  0  0
  7 11  2  0  0  0  0
  8 12  2  0  0  0  0
  9 10  2  0  0  0  0
 11 12  1  0  0  0  0
M  END
> <From>
www.bindingDB.org

> <BindingDB Reactant_set_id>
95202

> <Ligand InChI>
InChI=1S/C10H7BrO/c11-10-8-4-2-1-3-7(8)5-6-9(10)12/h1-6,12H

> <Ligand InChI Key>
FQJZPYXGPYJJIH-UHFFFAOYSA-N

> <BindingDB MonomerID>
51324

> <BindingDB Ligand Name>
1-bromanylnaphthalen-2-ol::1-bromo-2-naphthalenol::1-bromo-2-naphthol::1-bromonaphthalen-2-ol::MLS000069595::SMR000059032::cid_11316

> <Target Name>
DNA repair protein RAD51 homolog 1

> <Target Source Organism According to Curator or DataSource>
Homo sapiens

> <Ki (nM)>


> <IC50 (nM)>
 53000

> <Kd (nM)>


> <EC50 (nM)>


> <kon (M-1-s-1)>


> <koff (s-1)>


> <pH>


> <Temp C>


> <Curation/DataSource>
PubChem

> <Article DOI>


> <BindingDB Entry DOI>
10.7270/Q2QN6558

> <PMID>


> <PubChem AID>
aid1437

> <Patent Number>


> <Authors>
PubChem, PC

> <Date of publication>
11/25/2008

> <Date in BindingDB>
5/31/2011

> <Institution>
PCMD

> <Link to Ligand in BindingDB>
http://www.bindingdb.org/bind/chemsearch/marvin/MolStructure.jsp?monomerid=51324

> <Link to Ligand-Target Pair in BindingDB>
http://www.bindingdb.org/jsp/dbsearch/PrimarySearch_ki.jsp?energyterm=kJ/mole&tag=pol&polymerid=4676&target=DNA+repair+protein+RAD51+homolog+1&column=ki&startPg=0&Increment=50&submit=Search

> <Link to Ligand-Target Pair in BindingDB>
http://www.bindingdb.org/jsp/dbsearch/PrimarySearch_ki.jsp?energyterm=kJ/mole&tag=r21&monomerid=51324&enzyme=DNA+repair+protein+RAD51+homolog+1&column=ki&startPg=0&Increment=50&submit=Search

> <Ligand HET ID in PDB>


> <PDB ID(s) for Ligand-Target Complex>


> <PubChem CID of Ligand>
11316

> <PubChem SID of Ligand>
252631547

> <ChEBI ID of Ligand>


> <ChEMBL ID of Ligand>


> <DrugBank ID of Ligand>


> <IUPHAR_GRAC ID of Ligand>


> <KEGG ID of Ligand>


> <ZINC ID of Ligand>
ZINC12528878

> <Number of Protein Chains in Target (bigger than 1 implies a multichain complex)>
1

> <BindingDB Target Chain Sequence>
MAMQMQLEANADTSVEEESFGPQPISRLEQCGINANDVKKLEEAGFHTVEAVAYAPKKELINIKGISEAKADKILAEAAKLVPMGFTTATEFHQRRSEIIQITTGSKELDKLLQGGIETGSITEMFGEFRTGKTQICHTLAVTCQLPIDRGGGEGKAMYIDTEGTFRPERLLAVAERYGLSGSDVLDNVAYARAFNTDHQTQLLYQASAMMVESRYALLIVDSATALYRTDYSGRGELSARQMHLARFLRMLLRLADEFGVAVVITNQVVAQVDGAAMFAADPKKPIGGNIIAHASTTRLYLRKGRGETRICKIYDSPCLPEAEAMFAINADGVGDAKD

> <PDB ID(s) of Target Chain>
1N0W,5JZC,5NP7,5NWL,8BQ2,8BR2,8BSC

> <UniProt (SwissProt) Recommended Name of Target Chain>
DNA repair protein RAD51 homolog 1

> <UniProt (SwissProt) Entry Name of Target Chain>
RAD51_HUMAN

> <UniProt (SwissProt) Primary ID of Target Chain>
Q06609

> <UniProt (SwissProt) Secondary ID(s) of Target Chain>
B0FXP0 B2R8T6 Q6FHX9 Q6ZNA8 Q9BV60

> <UniProt (SwissProt) Alternative ID(s) of Target Chain>


> <UniProt (TrEMBL) Submitted Name of Target Chain>


> <UniProt (TrEMBL) Entry Name of Target Chain>


> <UniProt (TrEMBL) Primary ID of Target Chain>


> <UniProt (TrEMBL) Secondary ID(s) of Target Chain>


> <UniProt (TrEMBL) Alternative ID(s) of Target Chain>


$$$$
9549472
  Mrv0541 11251415502D          

 31 35  0  0  0  0            999 V2000
    5.1023    6.8992    0.0000 N   0  3  0  0  0  0  0  0  0  0  0  0
    2.4800    5.3852    0.0000 N   0  0  0  0  0  0  0  0  0  0  0  0
    5.1023    8.2271    0.0000 C   0  0  0  0  0  0  0  0  0  0  0  0
    5.8830    7.9756    0.0000 C   0  0  0  0  0  0  0  0  0  0  0  0
    4.6208    7.5631    0.0000 C   0  0  0  0  0  0  0  0  0  0  0  0
    1.3301    6.0491    0.0000 C   0  0  0  0  0  0  0  0  0  0  0  0
    5.8830    7.1506    0.0000 C   0  0  0  0  0  0  0  0  0  0  0  0
    2.1458    6.1342    0.0000 C   0  0  0  0  0  0  0  0  0  0  0  0
    1.1575    5.2474    0.0000 C   0  0  0  0  0  0  0  0  0  0  0  0
    4.4341    8.7108    0.0000 C   0  0  0  0  0  0  0  0  0  0  0  0
    5.3559    9.0121    0.0000 C   0  0  0  0  0  0  0  0  0  0  0  0
    6.5974    8.3881    0.0000 C   0  0  0  0  0  0  0  0  0  0  0  0
    1.8720    4.8349    0.0000 C   0  0  0  0  0  0  0  0  0  0  0  0
    3.7958    7.5631    0.0000 C   0  0  0  0  0  0  0  0  0  0  0  0
    0.5234    6.2220    0.0000 C   0  0  0  0  0  0  0  0  0  0  0  0
    1.2453    6.8698    0.0000 C   0  0  0  0  0  0  0  0  0  0  0  0
    6.5974    6.7381    0.0000 C   0  0  0  0  0  0  0  0  0  0  0  0
    7.3120    7.9756    0.0000 C   0  0  0  0  0  0  0  0  0  0  0  0
    2.5583    6.8486    0.0000 C   0  0  0  0  0  0  0  0  0  0  0  0
    4.8460    6.1150    0.0000 C   0  0  0  0  0  0  0  0  0  0  0  0
    3.3833    6.8486    0.0000 C   0  0  0  0  0  0  0  0  0  0  0  0
    7.3120    7.1506    0.0000 C   0  0  0  0  0  0  0  0  0  0  0  0
    0.4430    4.8349    0.0000 C   0  0  0  0  0  0  0  0  0  0  0  0
    6.5842    9.2474    0.0000 C   0  0  0  0  0  0  0  0  0  0  0  0
    3.2873    5.2151    0.0000 C   0  0  0  0  0  0  0  0  0  0  0  0
    1.8720    4.0098    0.0000 C   0  0  0  0  0  0  0  0  0  0  0  0
    8.0627    8.3938    0.0000 C   0  0  0  0  0  0  0  0  0  0  0  0
    0.4430    4.0098    0.0000 C   0  0  0  0  0  0  0  0  0  0  0  0
    1.1575    3.5973    0.0000 C   0  0  0  0  0  0  0  0  0  0  0  0
    7.3251    9.6828    0.0000 C   0  0  0  0  0  0  0  0  0  0  0  0
    8.0693    9.2532    0.0000 C   0  0  0  0  0  0  0  0  0  0  0  0
  1  5  2  0  0  0  0
  1  7  1  0  0  0  0
  1 20  1  0  0  0  0
  2  8  1  0  0  0  0
  2 13  1  0  0  0  0
  2 25  1  0  0  0  0
  3  4  1  0  0  0  0
  3  5  1  0  0  0  0
  3 10  1  0  0  0  0
  3 11  1  0  0  0  0
  4  7  1  0  0  0  0
  4 12  2  0  0  0  0
  5 14  1  0  0  0  0
  6  8  1  0  0  0  0
  6  9  1  0  0  0  0
  6 15  1  0  0  0  0
  6 16  1  0  0  0  0
  7 17  2  0  0  0  0
  8 19  2  0  0  0  0
  9 13  2  0  0  0  0
  9 23  1  0  0  0  0
 12 18  1  0  0  0  0
 12 24  1  0  0  0  0
 13 26  1  0  0  0  0
 14 21  2  0  0  0  0
 17 22  1  0  0  0  0
 18 22  2  0  0  0  0
 18 27  1  0  0  0  0
 19 21  1  0  0  0  0
 23 28  2  0  0  0  0
 24 30  2  0  0  0  0
 26 29  2  0  0  0  0
 27 31  2  0  0  0  0
 28 29  1  0  0  0  0
 30 31  1  0  0  0  0
M  CHG  1   1   1
M  END
> <From>
www.bindingDB.org

> <BindingDB Reactant_set_id>
95203

> <Ligand InChI>
InChI=1S/C29H31N2/c1-28(2)22-14-9-10-15-23(22)30(5)25(28)16-11-17-26-29(3,4)27-21-13-8-7-12-20(21)18-19-24(27)31(26)6/h7-19H,1-6H3/q+1

> <Ligand InChI Key>
CAQVGTGTLHVPML-UHFFFAOYSA-N

> <BindingDB MonomerID>
44459

> <BindingDB Ligand Name>
1,1,3-Trimethyl-2-[3-(1,3,3-trimethyl-1,3-dihydro-indol-2-ylidene)-propenyl]-1H-benzo[e]indolium::1,1,3-trimethyl-2-[(E,3Z)-3-(1,3,3-trimethyl-2-indolylidene)prop-1-enyl]benzo[e]indol-3-ium;perchlorate::1,1,3-trimethyl-2-[(E,3Z)-3-(1,3,3-trimethylindol-2-ylidene)prop-1-enyl]benzo[e]indol-3-ium;perchlorate::1,1,3-trimethyl-2-[(E,3Z)-3-(1,3,3-trimethylindolin-2-ylidene)prop-1-enyl]benz[e]indol-3-ium;perchlorate::MLS000525274::SMR000122148::cid_9549472

> <Target Name>
DNA repair protein RAD51 homolog 1

> <Target Source Organism According to Curator or DataSource>
Homo sapiens

> <Ki (nM)>


> <IC50 (nM)>
 10620

> <Kd (nM)>


> <EC50 (nM)>


> <kon (M-1-s-1)>


> <koff (s-1)>


> <pH>


> <Temp C>


> <Curation/DataSource>
PubChem

> <Article DOI>


> <BindingDB Entry DOI>
10.7270/Q2QN6558

> <PMID>


> <PubChem AID>
aid1437

> <Patent Number>


> <Authors>
PubChem, PC

> <Date of publication>
11/25/2008

> <Date in BindingDB>
5/31/2011

> <Institution>
PCMD

> <Link to Ligand in BindingDB>
http://www.bindingdb.org/bind/chemsearch/marvin/MolStructure.jsp?monomerid=44459

> <Link to Ligand-Target Pair in BindingDB>
http://www.bindingdb.org/jsp/dbsearch/PrimarySearch_ki.jsp?energyterm=kJ/mole&tag=pol&polymerid=4676&target=DNA+repair+protein+RAD51+homolog+1&column=ki&startPg=0&Increment=50&submit=Search

> <Link to Ligand-Target Pair in BindingDB>
http://www.bindingdb.org/jsp/dbsearch/PrimarySearch_ki.jsp?energyterm=kJ/mole&tag=r21&monomerid=44459&enzyme=DNA+repair+protein+RAD51+homolog+1&column=ki&startPg=0&Increment=50&submit=Search

> <Ligand HET ID in PDB>


> <PDB ID(s) for Ligand-Target Complex>


> <PubChem CID of Ligand>
5749166

> <PubChem SID of Ligand>
252625074

> <ChEBI ID of Ligand>


> <ChEMBL ID of Ligand>


> <DrugBank ID of Ligand>


> <IUPHAR_GRAC ID of Ligand>


> <KEGG ID of Ligand>


> <ZINC ID of Ligand>
ZINC66129485

> <Number of Protein Chains in Target (bigger than 1 implies a multichain complex)>
1

> <BindingDB Target Chain Sequence>
MAMQMQLEANADTSVEEESFGPQPISRLEQCGINANDVKKLEEAGFHTVEAVAYAPKKELINIKGISEAKADKILAEAAKLVPMGFTTATEFHQRRSEIIQITTGSKELDKLLQGGIETGSITEMFGEFRTGKTQICHTLAVTCQLPIDRGGGEGKAMYIDTEGTFRPERLLAVAERYGLSGSDVLDNVAYARAFNTDHQTQLLYQASAMMVESRYALLIVDSATALYRTDYSGRGELSARQMHLARFLRMLLRLADEFGVAVVITNQVVAQVDGAAMFAADPKKPIGGNIIAHASTTRLYLRKGRGETRICKIYDSPCLPEAEAMFAINADGVGDAKD

> <PDB ID(s) of Target Chain>
1N0W,5JZC,5NP7,5NWL,8BQ2,8BR2,8BSC

> <UniProt (SwissProt) Recommended Name of Target Chain>
DNA repair protein RAD51 homolog 1

> <UniProt (SwissProt) Entry Name of Target Chain>
RAD51_HUMAN

> <UniProt (SwissProt) Primary ID of Target Chain>
Q06609

> <UniProt (SwissProt) Secondary ID(s) of Target Chain>
B0FXP0 B2R8T6 Q6FHX9 Q6ZNA8 Q9BV60

> <UniProt (SwissProt) Alternative ID(s) of Target Chain>


> <UniProt (TrEMBL) Submitted Name of Target Chain>


> <UniProt (TrEMBL) Entry Name of Target Chain>


> <UniProt (TrEMBL) Primary ID of Target Chain>


> <UniProt (TrEMBL) Secondary ID(s) of Target Chain>


> <UniProt (TrEMBL) Alternative ID(s) of Target Chain>


$$$$
9550373
  Mrv0541 11251416042D          

 32 35  0  0  0  0            999 V2000
    6.8260    3.9487    0.0000 O   0  0  0  0  0  0  0  0  0  0  0  0
    8.2895    3.1038    0.0000 O   0  0  0  0  0  0  0  0  0  0  0  0
    7.5305   -3.1210    0.0000 N   0  0  0  0  0  0  0  0  0  0  0  0
    6.1015   -0.6460    0.0000 N   0  0  0  0  0  0  0  0  0  0  0  0
    5.3871    0.5915    0.0000 N   0  0  0  0  0  0  0  0  0  0  0  0
    6.8161    0.5915    0.0000 N   0  0  0  0  0  0  0  0  0  0  0  0
    4.6065    0.3401    0.0000 N   0  0  0  0  0  0  0  0  0  0  0  0
    4.6065    1.6680    0.0000 N   0  0  0  0  0  0  0  0  0  0  0  0
    2.0625    0.2896    0.0000 N   0  0  0  0  0  0  0  0  0  0  0  0
    7.5305   -2.2960    0.0000 C   0  0  0  0  0  0  0  0  0  0  0  0
    6.8161   -1.8835    0.0000 C   0  0  0  0  0  0  0  0  0  0  0  0
    6.8161   -1.0585    0.0000 C   0  0  0  0  0  0  0  0  0  0  0  0
    8.2450   -3.5335    0.0000 C   0  0  0  0  0  0  0  0  0  0  0  0
    6.8161   -3.5335    0.0000 C   0  0  0  0  0  0  0  0  0  0  0  0
    6.1015    0.1790    0.0000 C   0  0  0  0  0  0  0  0  0  0  0  0
    5.3871    1.4165    0.0000 C   0  0  0  0  0  0  0  0  0  0  0  0
    6.1015    1.8290    0.0000 C   0  0  0  0  0  0  0  0  0  0  0  0
    6.8161    1.4165    0.0000 C   0  0  0  0  0  0  0  0  0  0  0  0
    8.2450   -4.3585    0.0000 C   0  0  0  0  0  0  0  0  0  0  0  0
    6.8161   -4.3585    0.0000 C   0  0  0  0  0  0  0  0  0  0  0  0
    6.0883    2.6883    0.0000 C   0  0  0  0  0  0  0  0  0  0  0  0
    7.5668    1.8347    0.0000 C   0  0  0  0  0  0  0  0  0  0  0  0
    4.1250    1.0040    0.0000 C   0  0  0  0  0  0  0  0  0  0  0  0
    6.8292    3.1237    0.0000 C   0  0  0  0  0  0  0  0  0  0  0  0
    7.5734    2.6940    0.0000 C   0  0  0  0  0  0  0  0  0  0  0  0
    3.3000    1.0040    0.0000 C   0  0  0  0  0  0  0  0  0  0  0  0
    2.8875    1.7186    0.0000 C   0  0  0  0  0  0  0  0  0  0  0  0
    2.8875    0.2896    0.0000 C   0  0  0  0  0  0  0  0  0  0  0  0
    6.1099    4.3585    0.0000 C   0  0  0  0  0  0  0  0  0  0  0  0
    2.0625    1.7186    0.0000 C   0  0  0  0  0  0  0  0  0  0  0  0
    9.0023    2.6885    0.0000 C   0  0  0  0  0  0  0  0  0  0  0  0
    1.6500    1.0040    0.0000 C   0  0  0  0  0  0  0  0  0  0  0  0
  1 24  1  0  0  0  0
  1 29  1  0  0  0  0
  2 25  1  0  0  0  0
  2 31  1  0  0  0  0
  3 10  1  0  0  0  0
  3 13  1  0  0  0  0
  3 14  1  0  0  0  0
  4 12  1  0  0  0  0
  4 15  1  0  0  0  0
  5  7  1  0  0  0  0
  5 15  1  0  0  0  0
  5 16  1  0  0  0  0
  6 15  2  0  0  0  0
  6 18  1  0  0  0  0
  7 23  2  0  0  0  0
  8 16  2  0  0  0  0
  8 23  1  0  0  0  0
  9 28  2  0  0  0  0
  9 32  1  0  0  0  0
 10 11  1  0  0  0  0
 11 12  1  0  0  0  0
 13 19  1  0  0  0  0
 14 20  1  0  0  0  0
 16 17  1  0  0  0  0
 17 18  1  0  0  0  0
 17 21  2  0  0  0  0
 18 22  2  0  0  0  0
 21 24  1  0  0  0  0
 22 25  1  0  0  0  0
 23 26  1  0  0  0  0
 24 25  2  0  0  0  0
 26 27  2  0  0  0  0
 26 28  1  0  0  0  0
 27 30  1  0  0  0  0
 30 32  2  0  0  0  0
M  END
> <From>
www.bindingDB.org

> <BindingDB Reactant_set_id>
95204

> <Ligand InChI>
InChI=1S/C23H29N7O2/c1-5-29(6-2)12-8-11-25-23-26-18-14-20(32-4)19(31-3)13-17(18)22-27-21(28-30(22)23)16-9-7-10-24-15-16/h7,9-10,13-15H,5-6,8,11-12H2,1-4H3,(H,25,26)

> <Ligand InChI Key>
XYOKHOQUHXTSPQ-UHFFFAOYSA-N

> <BindingDB MonomerID>
51311

> <BindingDB Ligand Name>
3-[[8,9-dimethoxy-2-(3-pyridyl)-[1,2,4]triazolo[1,5-c]quinazolin-5-yl]amino]propyl-diethyl-amine::MLS000520482::N-(8,9-dimethoxy-2-pyridin-3-yl-[1,2,4]triazolo[1,5-c]quinazolin-5-yl)-N',N'-diethyl-propane-1,3-diamine::N-(8,9-dimethoxy-2-pyridin-3-yl-[1,2,4]triazolo[1,5-c]quinazolin-5-yl)-N',N'-diethylpropane-1,3-diamine::N-[8,9-dimethoxy-2-(3-pyridinyl)-[1,2,4]triazolo[1,5-c]quinazolin-5-yl]-N',N'-diethylpropane-1,3-diamine::SMR000130893::cid_9550373

> <Target Name>
DNA repair protein RAD51 homolog 1

> <Target Source Organism According to Curator or DataSource>
Homo sapiens

> <Ki (nM)>


> <IC50 (nM)>
 49940

> <Kd (nM)>


> <EC50 (nM)>


> <kon (M-1-s-1)>


> <koff (s-1)>


> <pH>


> <Temp C>


> <Curation/DataSource>
PubChem

> <Article DOI>


> <BindingDB Entry DOI>
10.7270/Q2QN6558

> <PMID>


> <PubChem AID>
aid1437

> <Patent Number>


> <Authors>
PubChem, PC

> <Date of publication>
11/25/2008

> <Date in BindingDB>
5/31/2011

> <Institution>
PCMD

> <Link to Ligand in BindingDB>
http://www.bindingdb.org/bind/chemsearch/marvin/MolStructure.jsp?monomerid=51311

> <Link to Ligand-Target Pair in BindingDB>
http://www.bindingdb.org/jsp/dbsearch/PrimarySearch_ki.jsp?energyterm=kJ/mole&tag=pol&polymerid=4676&target=DNA+repair+protein+RAD51+homolog+1&column=ki&startPg=0&Increment=50&submit=Search

> <Link to Ligand-Target Pair in BindingDB>
http://www.bindingdb.org/jsp/dbsearch/PrimarySearch_ki.jsp?energyterm=kJ/mole&tag=r21&monomerid=51311&enzyme=DNA+repair+protein+RAD51+homolog+1&column=ki&startPg=0&Increment=50&submit=Search

> <Ligand HET ID in PDB>


> <PDB ID(s) for Ligand-Target Complex>


> <PubChem CID of Ligand>
9550373

> <PubChem SID of Ligand>
252631537

> <ChEBI ID of Ligand>


> <ChEMBL ID of Ligand>


> <DrugBank ID of Ligand>


> <IUPHAR_GRAC ID of Ligand>


> <KEGG ID of Ligand>


> <ZINC ID of Ligand>
ZINC00910869

> <Number of Protein Chains in Target (bigger than 1 implies a multichain complex)>
1

> <BindingDB Target Chain Sequence>
MAMQMQLEANADTSVEEESFGPQPISRLEQCGINANDVKKLEEAGFHTVEAVAYAPKKELINIKGISEAKADKILAEAAKLVPMGFTTATEFHQRRSEIIQITTGSKELDKLLQGGIETGSITEMFGEFRTGKTQICHTLAVTCQLPIDRGGGEGKAMYIDTEGTFRPERLLAVAERYGLSGSDVLDNVAYARAFNTDHQTQLLYQASAMMVESRYALLIVDSATALYRTDYSGRGELSARQMHLARFLRMLLRLADEFGVAVVITNQVVAQVDGAAMFAADPKKPIGGNIIAHASTTRLYLRKGRGETRICKIYDSPCLPEAEAMFAINADGVGDAKD

> <PDB ID(s) of Target Chain>
1N0W,5JZC,5NP7,5NWL,8BQ2,8BR2,8BSC

> <UniProt (SwissProt) Recommended Name of Target Chain>
DNA repair protein RAD51 homolog 1

> <UniProt (SwissProt) Entry Name of Target Chain>
RAD51_HUMAN

> <UniProt (SwissProt) Primary ID of Target Chain>
Q06609

> <UniProt (SwissProt) Secondary ID(s) of Target Chain>
B0FXP0 B2R8T6 Q6FHX9 Q6ZNA8 Q9BV60

> <UniProt (SwissProt) Alternative ID(s) of Target Chain>


> <UniProt (TrEMBL) Submitted Name of Target Chain>


> <UniProt (TrEMBL) Entry Name of Target Chain>


> <UniProt (TrEMBL) Primary ID of Target Chain>


> <UniProt (TrEMBL) Secondary ID(s) of Target Chain>


> <UniProt (TrEMBL) Alternative ID(s) of Target Chain>


$$$$
6622924
  Mrv0541 11251416042D          

 32 35  0  0  0  0            999 V2000
    6.8260    3.9487    0.0000 O   0  0  0  0  0  0  0  0  0  0  0  0
    8.2895    3.1038    0.0000 O   0  0  0  0  0  0  0  0  0  0  0  0
    7.5305   -3.1210    0.0000 N   0  0  0  0  0  0  0  0  0  0  0  0
    6.1015   -0.6460    0.0000 N   0  0  0  0  0  0  0  0  0  0  0  0
    5.3871    0.5915    0.0000 N   0  0  0  0  0  0  0  0  0  0  0  0
    6.8161    0.5915    0.0000 N   0  0  0  0  0  0  0  0  0  0  0  0
    4.6065    0.3401    0.0000 N   0  0  0  0  0  0  0  0  0  0  0  0
    4.6065    1.6680    0.0000 N   0  0  0  0  0  0  0  0  0  0  0  0
    7.5305   -2.2960    0.0000 C   0  0  0  0  0  0  0  0  0  0  0  0
    6.8161   -1.8835    0.0000 C   0  0  0  0  0  0  0  0  0  0  0  0
    6.8161   -1.0585    0.0000 C   0  0  0  0  0  0  0  0  0  0  0  0
    8.2450   -3.5335    0.0000 C   0  0  0  0  0  0  0  0  0  0  0  0
    6.8161   -3.5335    0.0000 C   0  0  0  0  0  0  0  0  0  0  0  0
    6.1015    0.1790    0.0000 C   0  0  0  0  0  0  0  0  0  0  0  0
    5.3871    1.4165    0.0000 C   0  0  0  0  0  0  0  0  0  0  0  0
    6.1015    1.8290    0.0000 C   0  0  0  0  0  0  0  0  0  0  0  0
    6.8161    1.4165    0.0000 C   0  0  0  0  0  0  0  0  0  0  0  0
    8.2450   -4.3585    0.0000 C   0  0  0  0  0  0  0  0  0  0  0  0
    6.8161   -4.3585    0.0000 C   0  0  0  0  0  0  0  0  0  0  0  0
    6.0883    2.6883    0.0000 C   0  0  0  0  0  0  0  0  0  0  0  0
    4.1250    1.0040    0.0000 C   0  0  0  0  0  0  0  0  0  0  0  0
    7.5668    1.8347    0.0000 C   0  0  0  0  0  0  0  0  0  0  0  0
    6.8292    3.1237    0.0000 C   0  0  0  0  0  0  0  0  0  0  0  0
    7.5734    2.6940    0.0000 C   0  0  0  0  0  0  0  0  0  0  0  0
    3.3000    1.0040    0.0000 C   0  0  0  0  0  0  0  0  0  0  0  0
    2.8875    1.7186    0.0000 C   0  0  0  0  0  0  0  0  0  0  0  0
    2.8875    0.2896    0.0000 C   0  0  0  0  0  0  0  0  0  0  0  0
    2.0625    1.7186    0.0000 C   0  0  0  0  0  0  0  0  0  0  0  0
    2.0625    0.2896    0.0000 C   0  0  0  0  0  0  0  0  0  0  0  0
    1.6500    1.0040    0.0000 C   0  0  0  0  0  0  0  0  0  0  0  0
    6.1099    4.3585    0.0000 C   0  0  0  0  0  0  0  0  0  0  0  0
    9.0023    2.6885    0.0000 C   0  0  0  0  0  0  0  0  0  0  0  0
  1 23  1  0  0  0  0
  1 31  1  0  0  0  0
  2 24  1  0  0  0  0
  2 32  1  0  0  0  0
  3  9  1  0  0  0  0
  3 12  1  0  0  0  0
  3 13  1  0  0  0  0
  4 11  1  0  0  0  0
  4 14  1  0  0  0  0
  5  7  1  0  0  0  0
  5 14  1  0  0  0  0
  5 15  1  0  0  0  0
  6 14  2  0  0  0  0
  6 17  1  0  0  0  0
  7 21  2  0  0  0  0
  8 15  2  0  0  0  0
  8 21  1  0  0  0  0
  9 10  1  0  0  0  0
 10 11  1  0  0  0  0
 12 18  1  0  0  0  0
 13 19  1  0  0  0  0
 15 16  1  0  0  0  0
 16 17  1  0  0  0  0
 16 20  2  0  0  0  0
 17 22  2  0  0  0  0
 20 23  1  0  0  0  0
 21 25  1  0  0  0  0
 22 24  1  0  0  0  0
 23 24  2  0  0  0  0
 25 26  2  0  0  0  0
 25 27  1  0  0  0  0
 26 28  1  0  0  0  0
 27 29  2  0  0  0  0
 28 30  2  0  0  0  0
 29 30  1  0  0  0  0
M  END
> <From>
www.bindingDB.org

> <BindingDB Reactant_set_id>
95205

> <Ligand InChI>
InChI=1S/C24H30N6O2/c1-5-29(6-2)14-10-13-25-24-26-19-16-21(32-4)20(31-3)15-18(19)23-27-22(28-30(23)24)17-11-8-7-9-12-17/h7-9,11-12,15-16H,5-6,10,13-14H2,1-4H3,(H,25,26)

> <Ligand InChI Key>
FCDSTYYADHPQEM-UHFFFAOYSA-N

> <BindingDB MonomerID>
51312

> <BindingDB Ligand Name>
3-[(8,9-dimethoxy-2-phenyl-[1,2,4]triazolo[1,5-c]quinazolin-5-yl)amino]propyl-diethyl-amine::MLS000520480::N-(8,9-dimethoxy-2-phenyl-[1,2,4]triazolo[1,5-c]quinazolin-5-yl)-N',N'-diethyl-propane-1,3-diamine::N-(8,9-dimethoxy-2-phenyl-[1,2,4]triazolo[1,5-c]quinazolin-5-yl)-N',N'-diethylpropane-1,3-diamine::SMR000130891::US9211296, Table 7, Compd: 11::cid_6622924

> <Target Name>
DNA repair protein RAD51 homolog 1

> <Target Source Organism According to Curator or DataSource>
Homo sapiens

> <Ki (nM)>


> <IC50 (nM)>
 21110

> <Kd (nM)>


> <EC50 (nM)>


> <kon (M-1-s-1)>


> <koff (s-1)>


> <pH>


> <Temp C>


> <Curation/DataSource>
PubChem

> <Article DOI>


> <BindingDB Entry DOI>
10.7270/Q2QN6558

> <PMID>


> <PubChem AID>
aid1437

> <Patent Number>


> <Authors>
PubChem, PC

> <Date of publication>
11/25/2008

> <Date in BindingDB>
5/31/2011

> <Institution>
PCMD

> <Link to Ligand in BindingDB>
http://www.bindingdb.org/bind/chemsearch/marvin/MolStructure.jsp?monomerid=51312

> <Link to Ligand-Target Pair in BindingDB>
http://www.bindingdb.org/jsp/dbsearch/PrimarySearch_ki.jsp?energyterm=kJ/mole&tag=pol&polymerid=4676&target=DNA+repair+protein+RAD51+homolog+1&column=ki&startPg=0&Increment=50&submit=Search

> <Link to Ligand-Target Pair in BindingDB>
http://www.bindingdb.org/jsp/dbsearch/PrimarySearch_ki.jsp?energyterm=kJ/mole&tag=r21&monomerid=51312&enzyme=DNA+repair+protein+RAD51+homolog+1&column=ki&startPg=0&Increment=50&submit=Search

> <Ligand HET ID in PDB>


> <PDB ID(s) for Ligand-Target Complex>


> <PubChem CID of Ligand>
6622924

> <PubChem SID of Ligand>
252631538

> <ChEBI ID of Ligand>


> <ChEMBL ID of Ligand>


> <DrugBank ID of Ligand>


> <IUPHAR_GRAC ID of Ligand>


> <KEGG ID of Ligand>


> <ZINC ID of Ligand>
ZINC00128818

> <Number of Protein Chains in Target (bigger than 1 implies a multichain complex)>
1

> <BindingDB Target Chain Sequence>
MAMQMQLEANADTSVEEESFGPQPISRLEQCGINANDVKKLEEAGFHTVEAVAYAPKKELINIKGISEAKADKILAEAAKLVPMGFTTATEFHQRRSEIIQITTGSKELDKLLQGGIETGSITEMFGEFRTGKTQICHTLAVTCQLPIDRGGGEGKAMYIDTEGTFRPERLLAVAERYGLSGSDVLDNVAYARAFNTDHQTQLLYQASAMMVESRYALLIVDSATALYRTDYSGRGELSARQMHLARFLRMLLRLADEFGVAVVITNQVVAQVDGAAMFAADPKKPIGGNIIAHASTTRLYLRKGRGETRICKIYDSPCLPEAEAMFAINADGVGDAKD

> <PDB ID(s) of Target Chain>
1N0W,5JZC,5NP7,5NWL,8BQ2,8BR2,8BSC

> <UniProt (SwissProt) Recommended Name of Target Chain>
DNA repair protein RAD51 homolog 1

> <UniProt (SwissProt) Entry Name of Target Chain>
RAD51_HUMAN

> <UniProt (SwissProt) Primary ID of Target Chain>
Q06609

> <UniProt (SwissProt) Secondary ID(s) of Target Chain>
B0FXP0 B2R8T6 Q6FHX9 Q6ZNA8 Q9BV60

> <UniProt (SwissProt) Alternative ID(s) of Target Chain>


> <UniProt (TrEMBL) Submitted Name of Target Chain>


> <UniProt (TrEMBL) Entry Name of Target Chain>


> <UniProt (TrEMBL) Primary ID of Target Chain>


> <UniProt (TrEMBL) Secondary ID(s) of Target Chain>


> <UniProt (TrEMBL) Alternative ID(s) of Target Chain>


$$$$
109673
  Mrv0541 11251415332D          

 13 14  0  0  0  0            999 V2000
    1.8720    3.5558    0.0000 N   0  0  0  0  0  0  0  0  0  0  0  0
    1.8720    0.2558    0.0000 N   0  0  0  0  0  0  0  0  0  0  0  0
    2.5394    4.0408    0.0000 C   0  0  0  0  0  0  0  0  0  0  0  0
    1.2045    4.0408    0.0000 C   0  0  0  0  0  0  0  0  0  0  0  0
    2.2845    4.8254    0.0000 C   0  0  0  0  0  0  0  0  0  0  0  0
    1.4595    4.8254    0.0000 C   0  0  0  0  0  0  0  0  0  0  0  0
    1.8720    2.7308    0.0000 C   0  0  0  0  0  0  0  0  0  0  0  0
    1.1575    2.3183    0.0000 C   0  0  0  0  0  0  0  0  0  0  0  0
    2.5864    2.3183    0.0000 C   0  0  0  0  0  0  0  0  0  0  0  0
    1.1575    1.4933    0.0000 C   0  0  0  0  0  0  0  0  0  0  0  0
    2.5864    1.4933    0.0000 C   0  0  0  0  0  0  0  0  0  0  0  0
    0.4430    2.7308    0.0000 C   0  0  0  0  0  0  0  0  0  0  0  0
    1.8720    1.0808    0.0000 C   0  0  0  0  0  0  0  0  0  0  0  0
  1  3  1  0  0  0  0
  1  4  1  0  0  0  0
  1  7  1  0  0  0  0
  2 13  1  0  0  0  0
  3  5  1  0  0  0  0
  4  6  1  0  0  0  0
  5  6  1  0  0  0  0
  7  8  2  0  0  0  0
  7  9  1  0  0  0  0
  8 10  1  0  0  0  0
  8 12  1  0  0  0  0
  9 11  2  0  0  0  0
 10 13  2  0  0  0  0
 11 13  1  0  0  0  0
M  END
> <From>
www.bindingDB.org

> <BindingDB Reactant_set_id>
95206

> <Ligand InChI>
InChI=1S/C11H16N2/c1-9-8-10(12)4-5-11(9)13-6-2-3-7-13/h4-5,8H,2-3,6-7,12H2,1H3

> <Ligand InChI Key>
HXGBHCCAZHQXQV-UHFFFAOYSA-N

> <BindingDB MonomerID>
33089

> <BindingDB Ligand Name>
(3-methyl-4-pyrrolidino-phenyl)amine;hydrochloride::3-methyl-4-(1-pyrrolidinyl)aniline;hydrochloride::3-methyl-4-pyrrolidin-1-yl-aniline;hydrochloride::3-methyl-4-pyrrolidin-1-ylaniline;hydrochloride::MLS000566003::SMR000153134::cid_109673

> <Target Name>
DNA repair protein RAD51 homolog 1

> <Target Source Organism According to Curator or DataSource>
Homo sapiens

> <Ki (nM)>


> <IC50 (nM)>
 53000

> <Kd (nM)>


> <EC50 (nM)>


> <kon (M-1-s-1)>


> <koff (s-1)>


> <pH>


> <Temp C>


> <Curation/DataSource>
PubChem

> <Article DOI>


> <BindingDB Entry DOI>
10.7270/Q2QN6558

> <PMID>


> <PubChem AID>
aid1437

> <Patent Number>


> <Authors>
PubChem, PC

> <Date of publication>
11/25/2008

> <Date in BindingDB>
5/31/2011

> <Institution>
PCMD

> <Link to Ligand in BindingDB>
http://www.bindingdb.org/bind/chemsearch/marvin/MolStructure.jsp?monomerid=33089

> <Link to Ligand-Target Pair in BindingDB>
http://www.bindingdb.org/jsp/dbsearch/PrimarySearch_ki.jsp?energyterm=kJ/mole&tag=pol&polymerid=4676&target=DNA+repair+protein+RAD51+homolog+1&column=ki&startPg=0&Increment=50&submit=Search

> <Link to Ligand-Target Pair in BindingDB>
http://www.bindingdb.org/jsp/dbsearch/PrimarySearch_ki.jsp?energyterm=kJ/mole&tag=r21&monomerid=33089&enzyme=DNA+repair+protein+RAD51+homolog+1&column=ki&startPg=0&Increment=50&submit=Search

> <Ligand HET ID in PDB>


> <PDB ID(s) for Ligand-Target Complex>


> <PubChem CID of Ligand>
85277

> <PubChem SID of Ligand>
252616219

> <ChEBI ID of Ligand>


> <ChEMBL ID of Ligand>


> <DrugBank ID of Ligand>


> <IUPHAR_GRAC ID of Ligand>


> <KEGG ID of Ligand>


> <ZINC ID of Ligand>
ZINC05931894

> <Number of Protein Chains in Target (bigger than 1 implies a multichain complex)>
1

> <BindingDB Target Chain Sequence>
MAMQMQLEANADTSVEEESFGPQPISRLEQCGINANDVKKLEEAGFHTVEAVAYAPKKELINIKGISEAKADKILAEAAKLVPMGFTTATEFHQRRSEIIQITTGSKELDKLLQGGIETGSITEMFGEFRTGKTQICHTLAVTCQLPIDRGGGEGKAMYIDTEGTFRPERLLAVAERYGLSGSDVLDNVAYARAFNTDHQTQLLYQASAMMVESRYALLIVDSATALYRTDYSGRGELSARQMHLARFLRMLLRLADEFGVAVVITNQVVAQVDGAAMFAADPKKPIGGNIIAHASTTRLYLRKGRGETRICKIYDSPCLPEAEAMFAINADGVGDAKD

> <PDB ID(s) of Target Chain>
1N0W,5JZC,5NP7,5NWL,8BQ2,8BR2,8BSC

> <UniProt (SwissProt) Recommended Name of Target Chain>
DNA repair protein RAD51 homolog 1

> <UniProt (SwissProt) Entry Name of Target Chain>
RAD51_HUMAN

> <UniProt (SwissProt) Primary ID of Target Chain>
Q06609

> <UniProt (SwissProt) Secondary ID(s) of Target Chain>
B0FXP0 B2R8T6 Q6FHX9 Q6ZNA8 Q9BV60

> <UniProt (SwissProt) Alternative ID(s) of Target Chain>


> <UniProt (TrEMBL) Submitted Name of Target Chain>


> <UniProt (TrEMBL) Entry Name of Target Chain>


> <UniProt (TrEMBL) Primary ID of Target Chain>


> <UniProt (TrEMBL) Secondary ID(s) of Target Chain>


> <UniProt (TrEMBL) Alternative ID(s) of Target Chain>


$$$$
2220468
  Mrv0541 11251416042D          

 28 31  0  0  0  0            999 V2000
    5.9503    3.3285    0.0000 Cl  0  0  0  0  0  0  0  0  0  0  0  0
    5.2223   -0.4125    0.0000 O   0  0  0  0  0  0  0  0  0  0  0  0
    2.3644   -2.8875    0.0000 O   0  0  0  0  0  0  0  0  0  0  0  0
    4.5079    2.4750    0.0000 N   0  0  0  0  0  0  0  0  0  0  0  0
    3.7934   -0.4125    0.0000 N   0  0  0  0  0  0  0  0  0  0  0  0
    1.6500    2.4750    0.0000 N   0  0  0  0  0  0  0  0  0  0  0  0
    5.2223    1.2375    0.0000 C   0  0  0  0  0  0  0  0  0  0  0  0
    4.5079    0.8250    0.0000 C   0  0  0  0  0  0  0  0  0  0  0  0
    5.2223    2.0625    0.0000 C   0  0  0  0  0  0  0  0  0  0  0  0
    3.7934    2.0625    0.0000 C   0  0  0  0  0  0  0  0  0  0  0  0
    3.7934    1.2375    0.0000 C   0  0  0  0  0  0  0  0  0  0  0  0
    5.9599    0.7964    0.0000 C   0  0  0  0  0  0  0  0  0  0  0  0
    4.5079    0.0000    0.0000 C   0  0  0  0  0  0  0  0  0  0  0  0
    5.9599    2.5036    0.0000 C   0  0  0  0  0  0  0  0  0  0  0  0
    3.0789    2.4750    0.0000 C   0  0  0  0  0  0  0  0  0  0  0  0
    6.7073    1.2203    0.0000 C   0  0  0  0  0  0  0  0  0  0  0  0
    6.7073    2.0797    0.0000 C   0  0  0  0  0  0  0  0  0  0  0  0
    3.7934   -1.2375    0.0000 C   0  0  0  0  0  0  0  0  0  0  0  0
    3.0789    3.3000    0.0000 C   0  0  0  0  0  0  0  0  0  0  0  0
    3.0789   -1.6500    0.0000 C   0  0  0  0  0  0  0  0  0  0  0  0
    2.3644    2.0625    0.0000 C   0  0  0  0  0  0  0  0  0  0  0  0
    4.5079   -1.6500    0.0000 C   0  0  0  0  0  0  0  0  0  0  0  0
    3.0789   -2.4750    0.0000 C   0  0  0  0  0  0  0  0  0  0  0  0
    4.5079   -2.4750    0.0000 C   0  0  0  0  0  0  0  0  0  0  0  0
    3.7934   -2.8875    0.0000 C   0  0  0  0  0  0  0  0  0  0  0  0
    2.3644    3.7125    0.0000 C   0  0  0  0  0  0  0  0  0  0  0  0
    1.6500    3.3000    0.0000 C   0  0  0  0  0  0  0  0  0  0  0  0
    2.3644   -3.7125    0.0000 C   0  0  0  0  0  0  0  0  0  0  0  0
  1 14  1  0  0  0  0
  2 13  2  0  0  0  0
  3 23  1  0  0  0  0
  3 28  1  0  0  0  0
  4  9  2  0  0  0  0
  4 10  1  0  0  0  0
  5 13  1  0  0  0  0
  5 18  1  0  0  0  0
  6 21  2  0  0  0  0
  6 27  1  0  0  0  0
  7  8  2  0  0  0  0
  7  9  1  0  0  0  0
  7 12  1  0  0  0  0
  8 11  1  0  0  0  0
  8 13  1  0  0  0  0
  9 14  1  0  0  0  0
 10 11  2  0  0  0  0
 10 15  1  0  0  0  0
 12 16  2  0  0  0  0
 14 17  2  0  0  0  0
 15 19  2  0  0  0  0
 15 21  1  0  0  0  0
 16 17  1  0  0  0  0
 18 20  2  0  0  0  0
 18 22  1  0  0  0  0
 19 26  1  0  0  0  0
 20 23  1  0  0  0  0
 22 24  2  0  0  0  0
 23 25  2  0  0  0  0
 24 25  1  0  0  0  0
 26 27  2  0  0  0  0
M  END
> <From>
www.bindingDB.org

> <BindingDB Reactant_set_id>
95207

> <Ligand InChI>
InChI=1S/C22H16ClN3O2/c1-28-16-7-2-6-15(11-16)25-22(27)18-12-20(14-5-4-10-24-13-14)26-21-17(18)8-3-9-19(21)23/h2-13H,1H3,(H,25,27)

> <Ligand InChI Key>
LYKLHMXUKPRJOA-UHFFFAOYSA-N

> <BindingDB MonomerID>
51325

> <BindingDB Ligand Name>
8-chloranyl-N-(3-methoxyphenyl)-2-pyridin-3-yl-quinoline-4-carboxamide::8-chloro-N-(3-methoxyphenyl)-2-(3-pyridinyl)-4-quinolinecarboxamide::8-chloro-N-(3-methoxyphenyl)-2-(3-pyridyl)cinchoninamide::8-chloro-N-(3-methoxyphenyl)-2-pyridin-3-ylquinoline-4-carboxamide::MLS000582173::SMR000200708::cid_2220468

> <Target Name>
DNA repair protein RAD51 homolog 1

> <Target Source Organism According to Curator or DataSource>
Homo sapiens

> <Ki (nM)>


> <IC50 (nM)>
 53000

> <Kd (nM)>


> <EC50 (nM)>


> <kon (M-1-s-1)>


> <koff (s-1)>


> <pH>


> <Temp C>


> <Curation/DataSource>
PubChem

> <Article DOI>


> <BindingDB Entry DOI>
10.7270/Q2QN6558

> <PMID>


> <PubChem AID>
aid1437

> <Patent Number>


> <Authors>
PubChem, PC

> <Date of publication>
11/25/2008

> <Date in BindingDB>
5/31/2011

> <Institution>
PCMD

> <Link to Ligand in BindingDB>
http://www.bindingdb.org/bind/chemsearch/marvin/MolStructure.jsp?monomerid=51325

> <Link to Ligand-Target Pair in BindingDB>
http://www.bindingdb.org/jsp/dbsearch/PrimarySearch_ki.jsp?energyterm=kJ/mole&tag=pol&polymerid=4676&target=DNA+repair+protein+RAD51+homolog+1&column=ki&startPg=0&Increment=50&submit=Search

> <Link to Ligand-Target Pair in BindingDB>
http://www.bindingdb.org/jsp/dbsearch/PrimarySearch_ki.jsp?energyterm=kJ/mole&tag=r21&monomerid=51325&enzyme=DNA+repair+protein+RAD51+homolog+1&column=ki&startPg=0&Increment=50&submit=Search

> <Ligand HET ID in PDB>


> <PDB ID(s) for Ligand-Target Complex>


> <PubChem CID of Ligand>
2220468

> <PubChem SID of Ligand>
252631548

> <ChEBI ID of Ligand>


> <ChEMBL ID of Ligand>


> <DrugBank ID of Ligand>


> <IUPHAR_GRAC ID of Ligand>


> <KEGG ID of Ligand>


> <ZINC ID of Ligand>
ZINC00196136

> <Number of Protein Chains in Target (bigger than 1 implies a multichain complex)>
1

> <BindingDB Target Chain Sequence>
MAMQMQLEANADTSVEEESFGPQPISRLEQCGINANDVKKLEEAGFHTVEAVAYAPKKELINIKGISEAKADKILAEAAKLVPMGFTTATEFHQRRSEIIQITTGSKELDKLLQGGIETGSITEMFGEFRTGKTQICHTLAVTCQLPIDRGGGEGKAMYIDTEGTFRPERLLAVAERYGLSGSDVLDNVAYARAFNTDHQTQLLYQASAMMVESRYALLIVDSATALYRTDYSGRGELSARQMHLARFLRMLLRLADEFGVAVVITNQVVAQVDGAAMFAADPKKPIGGNIIAHASTTRLYLRKGRGETRICKIYDSPCLPEAEAMFAINADGVGDAKD

> <PDB ID(s) of Target Chain>
1N0W,5JZC,5NP7,5NWL,8BQ2,8BR2,8BSC

> <UniProt (SwissProt) Recommended Name of Target Chain>
DNA repair protein RAD51 homolog 1

> <UniProt (SwissProt) Entry Name of Target Chain>
RAD51_HUMAN

> <UniProt (SwissProt) Primary ID of Target Chain>
Q06609

> <UniProt (SwissProt) Secondary ID(s) of Target Chain>
B0FXP0 B2R8T6 Q6FHX9 Q6ZNA8 Q9BV60

> <UniProt (SwissProt) Alternative ID(s) of Target Chain>


> <UniProt (TrEMBL) Submitted Name of Target Chain>


> <UniProt (TrEMBL) Entry Name of Target Chain>


> <UniProt (TrEMBL) Primary ID of Target Chain>


> <UniProt (TrEMBL) Secondary ID(s) of Target Chain>


> <UniProt (TrEMBL) Alternative ID(s) of Target Chain>


$$$$
2936558
  Mrv0541 11251416042D          

 27 30  0  0  0  0            999 V2000
    3.9996    1.0088    0.0000 S   0  0  0  0  0  0  0  0  0  0  0  0
    4.5542   -0.6981    0.0000 O   0  0  0  0  0  0  0  0  0  0  0  0
    1.6500   -0.6981    0.0000 O   0  0  0  0  0  0  0  0  0  0  0  0
    3.1021   -0.9281    0.0000 N   0  0  0  0  0  0  0  0  0  0  0  0
    4.0764    2.4770    0.0000 N   0  0  0  0  0  0  0  0  0  0  0  0
    2.8570    1.9341    0.0000 N   0  0  0  0  0  0  0  0  0  0  0  0
    3.5244    3.0901    0.0000 N   0  0  0  0  0  0  0  0  0  0  0  0
    2.7707    2.7545    0.0000 N   0  0  0  0  0  0  0  0  0  0  0  0
    3.5146    0.3414    0.0000 C   0  0  0  0  0  0  0  0  0  0  0  0
    2.6896    0.3414    0.0000 C   0  0  0  0  0  0  0  0  0  0  0  0
    3.7695   -0.4432    0.0000 C   0  0  0  0  0  0  0  0  0  0  0  0
    2.4347   -0.4432    0.0000 C   0  0  0  0  0  0  0  0  0  0  0  0
    3.1021   -1.7531    0.0000 C   0  0  0  0  0  0  0  0  0  0  0  0
    2.3876   -2.1656    0.0000 C   0  0  0  0  0  0  0  0  0  0  0  0
    3.8166   -2.1656    0.0000 C   0  0  0  0  0  0  0  0  0  0  0  0
    2.3876   -2.9907    0.0000 C   0  0  0  0  0  0  0  0  0  0  0  0
    3.8166   -2.9907    0.0000 C   0  0  0  0  0  0  0  0  0  0  0  0
    3.1021   -3.4032    0.0000 C   0  0  0  0  0  0  0  0  0  0  0  0
    3.6639    1.7625    0.0000 C   0  0  0  0  0  0  0  0  0  0  0  0
    1.6731   -3.4032    0.0000 C   0  0  0  0  0  0  0  0  0  0  0  0
    4.5310   -3.4032    0.0000 C   0  0  0  0  0  0  0  0  0  0  0  0
    4.8969    2.5632    0.0000 C   0  0  0  0  0  0  0  0  0  0  0  0
    5.2325    3.3169    0.0000 C   0  0  0  0  0  0  0  0  0  0  0  0
    5.3819    1.8958    0.0000 C   0  0  0  0  0  0  0  0  0  0  0  0
    6.0530    3.4032    0.0000 C   0  0  0  0  0  0  0  0  0  0  0  0
    6.2024    1.9820    0.0000 C   0  0  0  0  0  0  0  0  0  0  0  0
    6.5379    2.7357    0.0000 C   0  0  0  0  0  0  0  0  0  0  0  0
  1  9  1  0  0  0  0
  1 19  1  0  0  0  0
  2 11  1  0  0  0  0
  3 12  1  0  0  0  0
  4 11  1  0  0  0  0
  4 12  1  0  0  0  0
  4 13  1  0  0  0  0
  5  7  1  0  0  0  0
  5 19  1  0  0  0  0
  5 22  1  0  0  0  0
  6  8  1  0  0  0  0
  6 19  2  0  0  0  0
  7  8  2  0  0  0  0
  9 10  1  0  0  0  0
  9 11  2  0  0  0  0
 10 12  2  0  0  0  0
 13 14  2  0  0  0  0
 13 15  1  0  0  0  0
 14 16  1  0  0  0  0
 15 17  2  0  0  0  0
 16 18  2  0  0  0  0
 16 20  1  0  0  0  0
 17 18  1  0  0  0  0
 17 21  1  0  0  0  0
 22 23  2  0  0  0  0
 22 24  1  0  0  0  0
 23 25  1  0  0  0  0
 24 26  2  0  0  0  0
 25 27  2  0  0  0  0
 26 27  1  0  0  0  0
M  END
> <From>
www.bindingDB.org

> <BindingDB Reactant_set_id>
95208

> <Ligand InChI>
InChI=1S/C19H17N5O2S/c1-12-8-13(2)10-15(9-12)23-17(25)11-16(18(23)26)27-19-20-21-22-24(19)14-6-4-3-5-7-14/h3-11,25-26H,1-2H3

> <Ligand InChI Key>
XRBPTHIBDCAODP-UHFFFAOYSA-N

> <BindingDB MonomerID>
51326

> <BindingDB Ligand Name>
1-(3,5-dimethylphenyl)-3-(1-phenyltetrazol-5-yl)sulfanylpyrrolidine-2,5-dione::1-(3,5-dimethylphenyl)-3-[(1-phenyl-1,2,3,4-tetrazol-5-yl)sulfanyl]pyrrolidine-2,5-dione::1-(3,5-dimethylphenyl)-3-[(1-phenyl-1H-tetrazol-5-yl)thio]-2,5-pyrrolidinedione::1-(3,5-dimethylphenyl)-3-[(1-phenyl-5-tetrazolyl)thio]pyrrolidine-2,5-dione::1-(3,5-dimethylphenyl)-3-[(1-phenyltetrazol-5-yl)thio]pyrrolidine-2,5-quinone::MLS000576813::SMR000198093::cid_2936558

> <Target Name>
DNA repair protein RAD51 homolog 1

> <Target Source Organism According to Curator or DataSource>
Homo sapiens

> <Ki (nM)>


> <IC50 (nM)>
 53000

> <Kd (nM)>


> <EC50 (nM)>


> <kon (M-1-s-1)>


> <koff (s-1)>


> <pH>


> <Temp C>


> <Curation/DataSource>
PubChem

> <Article DOI>


> <BindingDB Entry DOI>
10.7270/Q2QN6558

> <PMID>


> <PubChem AID>
aid1437

> <Patent Number>


> <Authors>
PubChem, PC

> <Date of publication>
11/25/2008

> <Date in BindingDB>
5/31/2011

> <Institution>
PCMD

> <Link to Ligand in BindingDB>
http://www.bindingdb.org/bind/chemsearch/marvin/MolStructure.jsp?monomerid=51326

> <Link to Ligand-Target Pair in BindingDB>
http://www.bindingdb.org/jsp/dbsearch/PrimarySearch_ki.jsp?energyterm=kJ/mole&tag=pol&polymerid=4676&target=DNA+repair+protein+RAD51+homolog+1&column=ki&startPg=0&Increment=50&submit=Search

> <Link to Ligand-Target Pair in BindingDB>
http://www.bindingdb.org/jsp/dbsearch/PrimarySearch_ki.jsp?energyterm=kJ/mole&tag=r21&monomerid=51326&enzyme=DNA+repair+protein+RAD51+homolog+1&column=ki&startPg=0&Increment=50&submit=Search

> <Ligand HET ID in PDB>


> <PDB ID(s) for Ligand-Target Complex>


> <PubChem CID of Ligand>
91896987

> <PubChem SID of Ligand>
252631549

> <ChEBI ID of Ligand>


> <ChEMBL ID of Ligand>


> <DrugBank ID of Ligand>


> <IUPHAR_GRAC ID of Ligand>


> <KEGG ID of Ligand>


> <ZINC ID of Ligand>
ZINC13147531

> <Number of Protein Chains in Target (bigger than 1 implies a multichain complex)>
1

> <BindingDB Target Chain Sequence>
MAMQMQLEANADTSVEEESFGPQPISRLEQCGINANDVKKLEEAGFHTVEAVAYAPKKELINIKGISEAKADKILAEAAKLVPMGFTTATEFHQRRSEIIQITTGSKELDKLLQGGIETGSITEMFGEFRTGKTQICHTLAVTCQLPIDRGGGEGKAMYIDTEGTFRPERLLAVAERYGLSGSDVLDNVAYARAFNTDHQTQLLYQASAMMVESRYALLIVDSATALYRTDYSGRGELSARQMHLARFLRMLLRLADEFGVAVVITNQVVAQVDGAAMFAADPKKPIGGNIIAHASTTRLYLRKGRGETRICKIYDSPCLPEAEAMFAINADGVGDAKD

> <PDB ID(s) of Target Chain>
1N0W,5JZC,5NP7,5NWL,8BQ2,8BR2,8BSC

> <UniProt (SwissProt) Recommended Name of Target Chain>
DNA repair protein RAD51 homolog 1

> <UniProt (SwissProt) Entry Name of Target Chain>
RAD51_HUMAN

> <UniProt (SwissProt) Primary ID of Target Chain>
Q06609

> <UniProt (SwissProt) Secondary ID(s) of Target Chain>
B0FXP0 B2R8T6 Q6FHX9 Q6ZNA8 Q9BV60

> <UniProt (SwissProt) Alternative ID(s) of Target Chain>


> <UniProt (TrEMBL) Submitted Name of Target Chain>


> <UniProt (TrEMBL) Entry Name of Target Chain>


> <UniProt (TrEMBL) Primary ID of Target Chain>


> <UniProt (TrEMBL) Secondary ID(s) of Target Chain>


> <UniProt (TrEMBL) Alternative ID(s) of Target Chain>


$$$$
1332381
  Mrv0541 11251416012D          

 26 28  0  0  0  0            999 V2000
    3.7935   -4.7598    0.0000 Cl  0  0  0  0  0  0  0  0  0  0  0  0
    3.7935    0.1902    0.0000 O   0  0  0  0  0  0  0  0  0  0  0  0
    1.6500   -3.5223    0.0000 O   0  5  0  0  0  0  0  0  0  0  0  0
    2.3645   -4.7598    0.0000 O   0  0  0  0  0  0  0  0  0  0  0  0
    5.2224    3.4903    0.0000 N   0  0  0  0  0  0  0  0  0  0  0  0
    5.2224    0.1902    0.0000 N   0  0  0  0  0  0  0  0  0  0  0  0
    2.3645   -3.9348    0.0000 N   0  3  0  0  0  0  0  0  0  0  0  0
    4.8099    4.7598    0.0000 C   0  0  0  0  0  0  0  0  0  0  0  0
    5.6349    4.7598    0.0000 C   0  0  0  0  0  0  0  0  0  0  0  0
    4.5550    3.9752    0.0000 C   0  0  0  0  0  0  0  0  0  0  0  0
    5.8898    3.9752    0.0000 C   0  0  0  0  0  0  0  0  0  0  0  0
    5.2224    2.6653    0.0000 C   0  0  0  0  0  0  0  0  0  0  0  0
    4.5079    2.2528    0.0000 C   0  0  0  0  0  0  0  0  0  0  0  0
    5.9369    2.2528    0.0000 C   0  0  0  0  0  0  0  0  0  0  0  0
    4.5079    1.4278    0.0000 C   0  0  0  0  0  0  0  0  0  0  0  0
    5.9369    1.4278    0.0000 C   0  0  0  0  0  0  0  0  0  0  0  0
    5.2224    1.0153    0.0000 C   0  0  0  0  0  0  0  0  0  0  0  0
    4.5079   -0.2223    0.0000 C   0  0  0  0  0  0  0  0  0  0  0  0
    4.5079   -1.0473    0.0000 C   0  0  0  0  0  0  0  0  0  0  0  0
    3.7935   -2.2848    0.0000 C   0  0  0  0  0  0  0  0  0  0  0  0
    3.7935   -1.4598    0.0000 C   0  0  0  0  0  0  0  0  0  0  0  0
    3.0789   -2.6973    0.0000 C   0  0  0  0  0  0  0  0  0  0  0  0
    4.5079   -2.6973    0.0000 C   0  0  0  0  0  0  0  0  0  0  0  0
    3.0789   -3.5223    0.0000 C   0  0  0  0  0  0  0  0  0  0  0  0
    4.5079   -3.5223    0.0000 C   0  0  0  0  0  0  0  0  0  0  0  0
    3.7935   -3.9348    0.0000 C   0  0  0  0  0  0  0  0  0  0  0  0
  1 26  1  0  0  0  0
  2 18  2  0  0  0  0
  3  7  1  0  0  0  0
  4  7  2  0  0  0  0
  5 10  1  0  0  0  0
  5 11  1  0  0  0  0
  5 12  1  0  0  0  0
  6 17  1  0  0  0  0
  6 18  1  0  0  0  0
  7 24  1  0  0  0  0
  8  9  1  0  0  0  0
  8 10  1  0  0  0  0
  9 11  1  0  0  0  0
 12 13  2  0  0  0  0
 12 14  1  0  0  0  0
 13 15  1  0  0  0  0
 14 16  2  0  0  0  0
 15 17  2  0  0  0  0
 16 17  1  0  0  0  0
 18 19  1  0  0  0  0
 19 21  2  0  0  0  0
 20 21  1  0  0  0  0
 20 22  2  0  0  0  0
 20 23  1  0  0  0  0
 22 24  1  0  0  0  0
 23 25  2  0  0  0  0
 24 26  2  0  0  0  0
 25 26  1  0  0  0  0
M  CHG  2   3  -1   7   1
M  END
> <From>
www.bindingDB.org

> <BindingDB Reactant_set_id>
95209

> <Ligand InChI>
InChI=1S/C19H18ClN3O3/c20-17-9-3-14(13-18(17)23(25)26)4-10-19(24)21-15-5-7-16(8-6-15)22-11-1-2-12-22/h3-10,13H,1-2,11-12H2,(H,21,24)/b10-4+

> <Ligand InChI Key>
AYMYBVLHBKEGED-ONNFQVAWSA-N

> <BindingDB MonomerID>
50230

> <BindingDB Ligand Name>
(E)-3-(4-chloranyl-3-nitro-phenyl)-N-(4-pyrrolidin-1-ylphenyl)prop-2-enamide::(E)-3-(4-chloro-3-nitro-phenyl)-N-(4-pyrrolidinophenyl)acrylamide::(E)-3-(4-chloro-3-nitrophenyl)-N-(4-pyrrolidin-1-ylphenyl)prop-2-enamide::(E)-3-(4-chloro-3-nitrophenyl)-N-[4-(1-pyrrolidinyl)phenyl]-2-propenamide::3-(4-chloro-3-nitrophenyl)-N-[4-(1-pyrrolidinyl)phenyl]acrylamide::MLS000574740::SMR000196170::cid_1332381

> <Target Name>
DNA repair protein RAD51 homolog 1

> <Target Source Organism According to Curator or DataSource>
Homo sapiens

> <Ki (nM)>


> <IC50 (nM)>
 53000

> <Kd (nM)>


> <EC50 (nM)>


> <kon (M-1-s-1)>


> <koff (s-1)>


> <pH>


> <Temp C>


> <Curation/DataSource>
PubChem

> <Article DOI>


> <BindingDB Entry DOI>
10.7270/Q2QN6558

> <PMID>


> <PubChem AID>
aid1437

> <Patent Number>


> <Authors>
PubChem, PC

> <Date of publication>
11/25/2008

> <Date in BindingDB>
5/31/2011

> <Institution>
PCMD

> <Link to Ligand in BindingDB>
http://www.bindingdb.org/bind/chemsearch/marvin/MolStructure.jsp?monomerid=50230

> <Link to Ligand-Target Pair in BindingDB>
http://www.bindingdb.org/jsp/dbsearch/PrimarySearch_ki.jsp?energyterm=kJ/mole&tag=pol&polymerid=4676&target=DNA+repair+protein+RAD51+homolog+1&column=ki&startPg=0&Increment=50&submit=Search

> <Link to Ligand-Target Pair in BindingDB>
http://www.bindingdb.org/jsp/dbsearch/PrimarySearch_ki.jsp?energyterm=kJ/mole&tag=r21&monomerid=50230&enzyme=DNA+repair+protein+RAD51+homolog+1&column=ki&startPg=0&Increment=50&submit=Search

> <Ligand HET ID in PDB>


> <PDB ID(s) for Ligand-Target Complex>


> <PubChem CID of Ligand>
1332381

> <PubChem SID of Ligand>
252630496

> <ChEBI ID of Ligand>


> <ChEMBL ID of Ligand>


> <DrugBank ID of Ligand>


> <IUPHAR_GRAC ID of Ligand>


> <KEGG ID of Ligand>


> <ZINC ID of Ligand>
ZINC04969561

> <Number of Protein Chains in Target (bigger than 1 implies a multichain complex)>
1

> <BindingDB Target Chain Sequence>
MAMQMQLEANADTSVEEESFGPQPISRLEQCGINANDVKKLEEAGFHTVEAVAYAPKKELINIKGISEAKADKILAEAAKLVPMGFTTATEFHQRRSEIIQITTGSKELDKLLQGGIETGSITEMFGEFRTGKTQICHTLAVTCQLPIDRGGGEGKAMYIDTEGTFRPERLLAVAERYGLSGSDVLDNVAYARAFNTDHQTQLLYQASAMMVESRYALLIVDSATALYRTDYSGRGELSARQMHLARFLRMLLRLADEFGVAVVITNQVVAQVDGAAMFAADPKKPIGGNIIAHASTTRLYLRKGRGETRICKIYDSPCLPEAEAMFAINADGVGDAKD

> <PDB ID(s) of Target Chain>
1N0W,5JZC,5NP7,5NWL,8BQ2,8BR2,8BSC

> <UniProt (SwissProt) Recommended Name of Target Chain>
DNA repair protein RAD51 homolog 1

> <UniProt (SwissProt) Entry Name of Target Chain>
RAD51_HUMAN

> <UniProt (SwissProt) Primary ID of Target Chain>
Q06609

> <UniProt (SwissProt) Secondary ID(s) of Target Chain>
B0FXP0 B2R8T6 Q6FHX9 Q6ZNA8 Q9BV60

> <UniProt (SwissProt) Alternative ID(s) of Target Chain>


> <UniProt (TrEMBL) Submitted Name of Target Chain>


> <UniProt (TrEMBL) Entry Name of Target Chain>


> <UniProt (TrEMBL) Primary ID of Target Chain>


> <UniProt (TrEMBL) Secondary ID(s) of Target Chain>


> <UniProt (TrEMBL) Alternative ID(s) of Target Chain>


$$$$
532117
  Mrv0541 11251416042D          

 18 19  0  0  0  0            999 V2000
    2.3644    0.6045    0.0000 O   0  0  0  0  0  0  0  0  0  0  0  0
    3.7934    0.6045    0.0000 N   0  0  0  0  0  0  0  0  0  0  0  0
    2.3644   -1.0455    0.0000 C   0  0  0  0  0  0  0  0  0  0  0  0
    2.3644   -1.8705    0.0000 C   0  0  0  0  0  0  0  0  0  0  0  0
    3.0789   -0.6330    0.0000 C   0  0  0  0  0  0  0  0  0  0  0  0
    1.6500   -2.2830    0.0000 C   0  0  0  0  0  0  0  0  0  0  0  0
    3.0789    0.1920    0.0000 C   0  0  0  0  0  0  0  0  0  0  0  0
    3.7934    1.4295    0.0000 C   0  0  0  0  0  0  0  0  0  0  0  0
    4.5079    1.8420    0.0000 C   0  0  0  0  0  0  0  0  0  0  0  0
    4.5079    2.6670    0.0000 C   0  0  0  0  0  0  0  0  0  0  0  0
    1.6500   -3.1080    0.0000 C   0  0  0  0  0  0  0  0  0  0  0  0
    3.0789    1.8420    0.0000 C   0  0  0  0  0  0  0  0  0  0  0  0
    5.2453    1.4008    0.0000 C   0  0  0  0  0  0  0  0  0  0  0  0
    3.7934    3.0795    0.0000 C   0  0  0  0  0  0  0  0  0  0  0  0
    3.0789    2.6670    0.0000 C   0  0  0  0  0  0  0  0  0  0  0  0
    5.2453    3.1080    0.0000 C   0  0  0  0  0  0  0  0  0  0  0  0
    5.9929    1.8247    0.0000 C   0  0  0  0  0  0  0  0  0  0  0  0
    5.9929    2.6841    0.0000 C   0  0  0  0  0  0  0  0  0  0  0  0
  1  7  2  0  0  0  0
  2  7  1  0  0  0  0
  2  8  1  0  0  0  0
  3  4  1  0  0  0  0
  3  5  1  0  0  0  0
  4  6  1  0  0  0  0
  5  7  1  0  0  0  0
  6 11  1  0  0  0  0
  8  9  2  0  0  0  0
  8 12  1  0  0  0  0
  9 10  1  0  0  0  0
  9 13  1  0  0  0  0
 10 14  2  0  0  0  0
 10 16  1  0  0  0  0
 12 15  2  0  0  0  0
 13 17  2  0  0  0  0
 14 15  1  0  0  0  0
 16 18  2  0  0  0  0
 17 18  1  0  0  0  0
M  END
> <From>
www.bindingDB.org

> <BindingDB Reactant_set_id>
95210

> <Ligand InChI>
InChI=1S/C16H19NO/c1-2-3-4-12-16(18)17-15-11-7-9-13-8-5-6-10-14(13)15/h5-11H,2-4,12H2,1H3,(H,17,18)

> <Ligand InChI Key>
WWCYIHPKOXDRJX-UHFFFAOYSA-N

> <BindingDB MonomerID>
51327

> <BindingDB Ligand Name>
MLS000723396::N-(1-naphthalenyl)hexanamide::N-(1-naphthyl)hexanamide::N-1-naphthylhexanamide::N-naphthalen-1-ylhexanamide::SMR000304991::cid_532117

> <Target Name>
DNA repair protein RAD51 homolog 1

> <Target Source Organism According to Curator or DataSource>
Homo sapiens

> <Ki (nM)>


> <IC50 (nM)>
 53000

> <Kd (nM)>


> <EC50 (nM)>


> <kon (M-1-s-1)>


> <koff (s-1)>


> <pH>


> <Temp C>


> <Curation/DataSource>
PubChem

> <Article DOI>


> <BindingDB Entry DOI>
10.7270/Q2QN6558

> <PMID>


> <PubChem AID>
aid1437

> <Patent Number>


> <Authors>
PubChem, PC

> <Date of publication>
11/25/2008

> <Date in BindingDB>
5/31/2011

> <Institution>
PCMD

> <Link to Ligand in BindingDB>
http://www.bindingdb.org/bind/chemsearch/marvin/MolStructure.jsp?monomerid=51327

> <Link to Ligand-Target Pair in BindingDB>
http://www.bindingdb.org/jsp/dbsearch/PrimarySearch_ki.jsp?energyterm=kJ/mole&tag=pol&polymerid=4676&target=DNA+repair+protein+RAD51+homolog+1&column=ki&startPg=0&Increment=50&submit=Search

> <Link to Ligand-Target Pair in BindingDB>
http://www.bindingdb.org/jsp/dbsearch/PrimarySearch_ki.jsp?energyterm=kJ/mole&tag=r21&monomerid=51327&enzyme=DNA+repair+protein+RAD51+homolog+1&column=ki&startPg=0&Increment=50&submit=Search

> <Ligand HET ID in PDB>


> <PDB ID(s) for Ligand-Target Complex>


> <PubChem CID of Ligand>
532117

> <PubChem SID of Ligand>
252631550

> <ChEBI ID of Ligand>


> <ChEMBL ID of Ligand>


> <DrugBank ID of Ligand>


> <IUPHAR_GRAC ID of Ligand>


> <KEGG ID of Ligand>


> <ZINC ID of Ligand>
ZINC02720430

> <Number of Protein Chains in Target (bigger than 1 implies a multichain complex)>
1

> <BindingDB Target Chain Sequence>
MAMQMQLEANADTSVEEESFGPQPISRLEQCGINANDVKKLEEAGFHTVEAVAYAPKKELINIKGISEAKADKILAEAAKLVPMGFTTATEFHQRRSEIIQITTGSKELDKLLQGGIETGSITEMFGEFRTGKTQICHTLAVTCQLPIDRGGGEGKAMYIDTEGTFRPERLLAVAERYGLSGSDVLDNVAYARAFNTDHQTQLLYQASAMMVESRYALLIVDSATALYRTDYSGRGELSARQMHLARFLRMLLRLADEFGVAVVITNQVVAQVDGAAMFAADPKKPIGGNIIAHASTTRLYLRKGRGETRICKIYDSPCLPEAEAMFAINADGVGDAKD

> <PDB ID(s) of Target Chain>
1N0W,5JZC,5NP7,5NWL,8BQ2,8BR2,8BSC

> <UniProt (SwissProt) Recommended Name of Target Chain>
DNA repair protein RAD51 homolog 1

> <UniProt (SwissProt) Entry Name of Target Chain>
RAD51_HUMAN

> <UniProt (SwissProt) Primary ID of Target Chain>
Q06609

> <UniProt (SwissProt) Secondary ID(s) of Target Chain>
B0FXP0 B2R8T6 Q6FHX9 Q6ZNA8 Q9BV60

> <UniProt (SwissProt) Alternative ID(s) of Target Chain>


> <UniProt (TrEMBL) Submitted Name of Target Chain>


> <UniProt (TrEMBL) Entry Name of Target Chain>


> <UniProt (TrEMBL) Primary ID of Target Chain>


> <UniProt (TrEMBL) Secondary ID(s) of Target Chain>


> <UniProt (TrEMBL) Alternative ID(s) of Target Chain>


$$$$
2944333
  Mrv0541 11251416042D          

 24 25  0  0  1  0            999 V2000
    5.9370   -0.6188    0.0000 O   0  0  0  0  0  0  0  0  0  0  0  0
    2.3645   -1.8563    0.0000 O   0  0  0  0  0  0  0  0  0  0  0  0
    3.0790   -0.6188    0.0000 O   0  0  0  0  0  0  0  0  0  0  0  0
    8.0804    3.0938    0.0000 O   0  5  0  0  0  0  0  0  0  0  0  0
    8.7949    1.8563    0.0000 O   0  0  0  0  0  0  0  0  0  0  0  0
    4.5080   -0.6188    0.0000 N   0  0  0  0  0  0  0  0  0  0  0  0
    8.0804    2.2688    0.0000 N   0  3  0  0  0  0  0  0  0  0  0  0
    5.2224    0.6188    0.0000 C   0  0  0  0  0  0  0  0  0  0  0  0
    5.9370    1.0313    0.0000 C   0  0  0  0  0  0  0  0  0  0  0  0
    5.2224   -0.2063    0.0000 C   0  0  0  0  0  0  0  0  0  0  0  0
    4.5080    1.0313    0.0000 C   0  0  0  0  0  0  0  0  0  0  0  0
    5.9370    1.8563    0.0000 C   0  0  0  0  0  0  0  0  0  0  0  0
    6.6515    0.6188    0.0000 C   0  0  0  0  0  0  0  0  0  0  0  0
    4.5080   -1.4438    0.0000 C   0  0  0  0  0  0  0  0  0  0  0  0
    6.6515    2.2688    0.0000 C   0  0  0  0  0  0  0  0  0  0  0  0
    7.3659    1.0313    0.0000 C   0  0  0  0  0  0  0  0  0  0  0  0
    7.3659    1.8563    0.0000 C   0  0  0  0  0  0  0  0  0  0  0  0
    3.7935   -1.8563    0.0000 C   0  0  0  0  0  0  0  0  0  0  0  0
    5.2224   -1.8563    0.0000 C   0  0  0  0  0  0  0  0  0  0  0  0
    3.7935   -2.6813    0.0000 C   0  0  0  0  0  0  0  0  0  0  0  0
    5.2224   -2.6813    0.0000 C   0  0  0  0  0  0  0  0  0  0  0  0
    4.5080   -3.0938    0.0000 C   0  0  0  0  0  0  0  0  0  0  0  0
    3.0790   -1.4438    0.0000 C   0  0  0  0  0  0  0  0  0  0  0  0
    1.6500   -1.4438    0.0000 C   0  0  0  0  0  0  0  0  0  0  0  0
  1 10  2  0  0  0  0
  2 23  1  0  0  0  0
  2 24  1  0  0  0  0
  3 23  2  0  0  0  0
  4  7  1  0  0  0  0
  5  7  2  0  0  0  0
  6 10  1  0  0  0  0
  6 14  1  0  0  0  0
  7 17  1  0  0  0  0
  8  9  1  0  0  0  0
  8 10  1  0  0  0  0
  8 11  1  0  0  0  0
  9 12  2  0  0  0  0
  9 13  1  0  0  0  0
 12 15  1  0  0  0  0
 13 16  2  0  0  0  0
 14 18  2  0  0  0  0
 14 19  1  0  0  0  0
 15 17  2  0  0  0  0
 16 17  1  0  0  0  0
 18 20  1  0  0  0  0
 18 23  1  0  0  0  0
 19 21  2  0  0  0  0
 20 22  2  0  0  0  0
 21 22  1  0  0  0  0
M  CHG  2   4  -1   7   1
M  END
> <From>
www.bindingDB.org

> <BindingDB Reactant_set_id>
95211

> <Ligand InChI>
InChI=1S/C17H16N2O5/c1-11(12-7-9-13(10-8-12)19(22)23)16(20)18-15-6-4-3-5-14(15)17(21)24-2/h3-11H,1-2H3,(H,18,20)

> <Ligand InChI Key>
GEBHKQRCGUTCMK-UHFFFAOYSA-N

> <BindingDB MonomerID>
51328

> <BindingDB Ligand Name>
2-[2-(4-nitrophenyl)propanoylamino]benzoic acid methyl ester::2-[[2-(4-nitrophenyl)-1-oxopropyl]amino]benzoic acid methyl ester::MLS000662346::SMR000292884::cid_2944333::methyl 2-[2-(4-nitrophenyl)propanoylamino]benzoate::methyl 2-{[2-(4-nitrophenyl)propanoyl]amino}benzoate

> <Target Name>
DNA repair protein RAD51 homolog 1

> <Target Source Organism According to Curator or DataSource>
Homo sapiens

> <Ki (nM)>


> <IC50 (nM)>
 53000

> <Kd (nM)>


> <EC50 (nM)>


> <kon (M-1-s-1)>


> <koff (s-1)>


> <pH>


> <Temp C>


> <Curation/DataSource>
PubChem

> <Article DOI>


> <BindingDB Entry DOI>
10.7270/Q2QN6558

> <PMID>


> <PubChem AID>
aid1437

> <Patent Number>


> <Authors>
PubChem, PC

> <Date of publication>
11/25/2008

> <Date in BindingDB>
5/31/2011

> <Institution>
PCMD

> <Link to Ligand in BindingDB>
http://www.bindingdb.org/bind/chemsearch/marvin/MolStructure.jsp?monomerid=51328

> <Link to Ligand-Target Pair in BindingDB>
http://www.bindingdb.org/jsp/dbsearch/PrimarySearch_ki.jsp?energyterm=kJ/mole&tag=pol&polymerid=4676&target=DNA+repair+protein+RAD51+homolog+1&column=ki&startPg=0&Increment=50&submit=Search

> <Link to Ligand-Target Pair in BindingDB>
http://www.bindingdb.org/jsp/dbsearch/PrimarySearch_ki.jsp?energyterm=kJ/mole&tag=r21&monomerid=51328&enzyme=DNA+repair+protein+RAD51+homolog+1&column=ki&startPg=0&Increment=50&submit=Search

> <Ligand HET ID in PDB>


> <PDB ID(s) for Ligand-Target Complex>


> <PubChem CID of Ligand>
2944333

> <PubChem SID of Ligand>
252631551

> <ChEBI ID of Ligand>


> <ChEMBL ID of Ligand>


> <DrugBank ID of Ligand>


> <IUPHAR_GRAC ID of Ligand>


> <KEGG ID of Ligand>


> <ZINC ID of Ligand>
ZINC13147287

> <Number of Protein Chains in Target (bigger than 1 implies a multichain complex)>
1

> <BindingDB Target Chain Sequence>
MAMQMQLEANADTSVEEESFGPQPISRLEQCGINANDVKKLEEAGFHTVEAVAYAPKKELINIKGISEAKADKILAEAAKLVPMGFTTATEFHQRRSEIIQITTGSKELDKLLQGGIETGSITEMFGEFRTGKTQICHTLAVTCQLPIDRGGGEGKAMYIDTEGTFRPERLLAVAERYGLSGSDVLDNVAYARAFNTDHQTQLLYQASAMMVESRYALLIVDSATALYRTDYSGRGELSARQMHLARFLRMLLRLADEFGVAVVITNQVVAQVDGAAMFAADPKKPIGGNIIAHASTTRLYLRKGRGETRICKIYDSPCLPEAEAMFAINADGVGDAKD

> <PDB ID(s) of Target Chain>
1N0W,5JZC,5NP7,5NWL,8BQ2,8BR2,8BSC

> <UniProt (SwissProt) Recommended Name of Target Chain>
DNA repair protein RAD51 homolog 1

> <UniProt (SwissProt) Entry Name of Target Chain>
RAD51_HUMAN

> <UniProt (SwissProt) Primary ID of Target Chain>
Q06609

> <UniProt (SwissProt) Secondary ID(s) of Target Chain>
B0FXP0 B2R8T6 Q6FHX9 Q6ZNA8 Q9BV60

> <UniProt (SwissProt) Alternative ID(s) of Target Chain>


> <UniProt (TrEMBL) Submitted Name of Target Chain>


> <UniProt (TrEMBL) Entry Name of Target Chain>


> <UniProt (TrEMBL) Primary ID of Target Chain>


> <UniProt (TrEMBL) Secondary ID(s) of Target Chain>


> <UniProt (TrEMBL) Alternative ID(s) of Target Chain>


$$$$
16187976
  Mrv0541 11251416042D          

 35 39  0  0  0  0            999 V2000
    3.7350    2.9822    0.0000 S   0  0  0  0  0  0  0  0  0  0  0  0
    6.1041    0.6222    0.0000 S   0  0  0  0  0  0  0  0  0  0  0  0
    5.4860    3.4763    0.0000 O   0  0  0  0  0  0  0  0  0  0  0  0
    7.2034   -0.6083    0.0000 O   0  0  0  0  0  0  0  0  0  0  0  0
    7.9364    3.9751    0.0000 N   0  0  0  0  0  0  0  0  0  0  0  0
    5.8200    2.0547    0.0000 N   0  0  0  0  0  0  0  0  0  0  0  0
    4.7126    1.0652    0.0000 N   0  0  0  0  0  0  0  0  0  0  0  0
    6.1379   -1.5603    0.0000 N   0  0  0  0  0  0  0  0  0  0  0  0
    8.7201    4.2331    0.0000 C   0  0  0  0  0  0  0  0  0  0  0  0
    7.4489    4.6406    0.0000 C   0  0  0  0  0  0  0  0  0  0  0  0
    8.7169    5.0581    0.0000 C   0  0  0  0  0  0  0  0  0  0  0  0
    7.9313    5.3099    0.0000 C   0  0  0  0  0  0  0  0  0  0  0  0
    7.6846    3.1896    0.0000 C   0  0  0  0  0  0  0  0  0  0  0  0
    6.8782    3.0149    0.0000 C   0  0  0  0  0  0  0  0  0  0  0  0
    6.6263    2.2293    0.0000 C   0  0  0  0  0  0  0  0  0  0  0  0
    5.2401    2.6888    0.0000 C   0  0  0  0  0  0  0  0  0  0  0  0
    5.5544    1.2374    0.0000 C   0  0  0  0  0  0  0  0  0  0  0  0
    4.4024    2.4972    0.0000 C   0  0  0  0  0  0  0  0  0  0  0  0
    4.1475    1.7126    0.0000 C   0  0  0  0  0  0  0  0  0  0  0  0
    3.3225    1.7126    0.0000 C   0  0  0  0  0  0  0  0  0  0  0  0
    3.0675    2.4972    0.0000 C   0  0  0  0  0  0  0  0  0  0  0  0
    2.7574    1.0652    0.0000 C   0  0  0  0  0  0  0  0  0  0  0  0
    2.2298    2.6888    0.0000 C   0  0  0  0  0  0  0  0  0  0  0  0
    5.8462   -0.1614    0.0000 C   0  0  0  0  0  0  0  0  0  0  0  0
    1.9155    1.2374    0.0000 C   0  0  0  0  0  0  0  0  0  0  0  0
    1.6500    2.0547    0.0000 C   0  0  0  0  0  0  0  0  0  0  0  0
    6.3958   -0.7766    0.0000 C   0  0  0  0  0  0  0  0  0  0  0  0
    6.6876   -2.1755    0.0000 C   0  0  0  0  0  0  0  0  0  0  0  0
    6.4296   -2.9591    0.0000 C   0  0  0  0  0  0  0  0  0  0  0  0
    5.6219   -3.1275    0.0000 C   0  0  0  0  0  0  0  0  0  0  0  0
    6.9792   -3.5743    0.0000 C   0  0  0  0  0  0  0  0  0  0  0  0
    5.9136   -4.5264    0.0000 C   0  0  0  0  0  0  0  0  0  0  0  0
    5.3640   -3.9111    0.0000 C   0  0  0  0  0  0  0  0  0  0  0  0
    6.7213   -4.3579    0.0000 C   0  0  0  0  0  0  0  0  0  0  0  0
    5.6557   -5.3099    0.0000 C   0  0  0  0  0  0  0  0  0  0  0  0
  1 18  1  0  0  0  0
  1 21  1  0  0  0  0
  2 17  1  0  0  0  0
  2 24  1  0  0  0  0
  3 16  2  0  0  0  0
  4 27  2  0  0  0  0
  5  9  1  0  0  0  0
  5 10  1  0  0  0  0
  5 13  1  0  0  0  0
  6 15  1  0  0  0  0
  6 16  1  0  0  0  0
  6 17  1  0  0  0  0
  7 17  2  0  0  0  0
  7 19  1  0  0  0  0
  8 27  1  0  0  0  0
  8 28  1  0  0  0  0
  9 11  1  0  0  0  0
 10 12  1  0  0  0  0
 11 12  1  0  0  0  0
 13 14  1  0  0  0  0
 14 15  1  0  0  0  0
 16 18  1  0  0  0  0
 18 19  2  0  0  0  0
 19 20  1  0  0  0  0
 20 21  1  0  0  0  0
 20 22  2  0  0  0  0
 21 23  2  0  0  0  0
 22 25  1  0  0  0  0
 23 26  1  0  0  0  0
 24 27  1  0  0  0  0
 25 26  2  0  0  0  0
 28 29  1  0  0  0  0
 29 30  2  0  0  0  0
 29 31  1  0  0  0  0
 30 33  1  0  0  0  0
 31 34  2  0  0  0  0
 32 33  2  0  0  0  0
 32 34  1  0  0  0  0
 32 35  1  0  0  0  0
M  END
> <From>
www.bindingDB.org

> <BindingDB Reactant_set_id>
95212

> <Ligand InChI>
InChI=1S/C27H30N4O2S2/c1-19-9-11-20(12-10-19)17-28-23(32)18-34-27-29-24-21-7-2-3-8-22(21)35-25(24)26(33)31(27)16-6-15-30-13-4-5-14-30/h2-3,7-12H,4-6,13-18H2,1H3,(H,28,32)

> <Ligand InChI Key>
CJSRHKKCGJFMKE-UHFFFAOYSA-N

> <BindingDB MonomerID>
51329

> <BindingDB Ligand Name>
2-[[4-keto-3-(3-pyrrolidinopropyl)benzothiopheno[3,2-d]pyrimidin-2-yl]thio]-N-(4-methylbenzyl)acetamide::MLS000660993::N-(4-methylbenzyl)-2-{[4-oxo-3-(3-pyrrolidin-1-ylpropyl)-3,4-dihydro[1]benzothieno[3,2-d]pyrimidin-2-yl]thio}acetamide::N-[(4-methylphenyl)methyl]-2-[[4-oxidanylidene-3-(3-pyrrolidin-1-ylpropyl)-[1]benzothiolo[3,2-d]pyrimidin-2-yl]sulfanyl]ethanamide::N-[(4-methylphenyl)methyl]-2-[[4-oxo-3-(3-pyrrolidin-1-ylpropyl)-[1]benzothiolo[3,2-d]pyrimidin-2-yl]sulfanyl]acetamide::N-[(4-methylphenyl)methyl]-2-[[4-oxo-3-[3-(1-pyrrolidinyl)propyl]-[1]benzothiolo[3,2-d]pyrimidin-2-yl]thio]acetamide::SMR000310631::cid_16187976

> <Target Name>
DNA repair protein RAD51 homolog 1

> <Target Source Organism According to Curator or DataSource>
Homo sapiens

> <Ki (nM)>


> <IC50 (nM)>
 53000

> <Kd (nM)>


> <EC50 (nM)>


> <kon (M-1-s-1)>


> <koff (s-1)>


> <pH>


> <Temp C>


> <Curation/DataSource>
PubChem

> <Article DOI>


> <BindingDB Entry DOI>
10.7270/Q2QN6558

> <PMID>


> <PubChem AID>
aid1437

> <Patent Number>


> <Authors>
PubChem, PC

> <Date of publication>
11/25/2008

> <Date in BindingDB>
5/31/2011

> <Institution>
PCMD

> <Link to Ligand in BindingDB>
http://www.bindingdb.org/bind/chemsearch/marvin/MolStructure.jsp?monomerid=51329

> <Link to Ligand-Target Pair in BindingDB>
http://www.bindingdb.org/jsp/dbsearch/PrimarySearch_ki.jsp?energyterm=kJ/mole&tag=pol&polymerid=4676&target=DNA+repair+protein+RAD51+homolog+1&column=ki&startPg=0&Increment=50&submit=Search

> <Link to Ligand-Target Pair in BindingDB>
http://www.bindingdb.org/jsp/dbsearch/PrimarySearch_ki.jsp?energyterm=kJ/mole&tag=r21&monomerid=51329&enzyme=DNA+repair+protein+RAD51+homolog+1&column=ki&startPg=0&Increment=50&submit=Search

> <Ligand HET ID in PDB>


> <PDB ID(s) for Ligand-Target Complex>


> <PubChem CID of Ligand>
16187976

> <PubChem SID of Ligand>
252631552

> <ChEBI ID of Ligand>


> <ChEMBL ID of Ligand>


> <DrugBank ID of Ligand>


> <IUPHAR_GRAC ID of Ligand>


> <KEGG ID of Ligand>


> <ZINC ID of Ligand>
ZINC02858339

> <Number of Protein Chains in Target (bigger than 1 implies a multichain complex)>
1

> <BindingDB Target Chain Sequence>
MAMQMQLEANADTSVEEESFGPQPISRLEQCGINANDVKKLEEAGFHTVEAVAYAPKKELINIKGISEAKADKILAEAAKLVPMGFTTATEFHQRRSEIIQITTGSKELDKLLQGGIETGSITEMFGEFRTGKTQICHTLAVTCQLPIDRGGGEGKAMYIDTEGTFRPERLLAVAERYGLSGSDVLDNVAYARAFNTDHQTQLLYQASAMMVESRYALLIVDSATALYRTDYSGRGELSARQMHLARFLRMLLRLADEFGVAVVITNQVVAQVDGAAMFAADPKKPIGGNIIAHASTTRLYLRKGRGETRICKIYDSPCLPEAEAMFAINADGVGDAKD

> <PDB ID(s) of Target Chain>
1N0W,5JZC,5NP7,5NWL,8BQ2,8BR2,8BSC

> <UniProt (SwissProt) Recommended Name of Target Chain>
DNA repair protein RAD51 homolog 1

> <UniProt (SwissProt) Entry Name of Target Chain>
RAD51_HUMAN

> <UniProt (SwissProt) Primary ID of Target Chain>
Q06609

> <UniProt (SwissProt) Secondary ID(s) of Target Chain>
B0FXP0 B2R8T6 Q6FHX9 Q6ZNA8 Q9BV60

> <UniProt (SwissProt) Alternative ID(s) of Target Chain>


> <UniProt (TrEMBL) Submitted Name of Target Chain>


> <UniProt (TrEMBL) Entry Name of Target Chain>


> <UniProt (TrEMBL) Primary ID of Target Chain>


> <UniProt (TrEMBL) Secondary ID(s) of Target Chain>


> <UniProt (TrEMBL) Alternative ID(s) of Target Chain>


$$$$
16188549
  Mrv0541 11251416042D          

 28 31  0  0  0  0            999 V2000
    9.4812    3.6126    0.0000 Cl  0  0  0  0  0  0  0  0  0  0  0  0
    6.5688    5.2826    0.0000 O   0  0  0  0  0  0  0  0  0  0  0  0
    4.4254    1.5700    0.0000 N   0  0  0  0  0  0  0  0  0  0  0  0
    6.5688    2.8075    0.0000 N   0  3  0  0  0  0  0  0  0  0  0  0
    5.1399    1.1575    0.0000 C   0  0  0  0  0  0  0  0  0  0  0  0
    4.4254    2.3950    0.0000 C   0  0  0  0  0  0  0  0  0  0  0  0
    5.8543    2.3950    0.0000 C   0  0  0  0  0  0  0  0  0  0  0  0
    5.1399    2.8075    0.0000 C   0  0  0  0  0  0  0  0  0  0  0  0
    5.8543    1.5700    0.0000 C   0  0  0  0  0  0  0  0  0  0  0  0
    3.6004    2.3950    0.0000 C   0  0  0  0  0  0  0  0  0  0  0  0
    4.0129    3.1095    0.0000 C   0  0  0  0  0  0  0  0  0  0  0  0
    4.7274    0.4430    0.0000 C   0  0  0  0  0  0  0  0  0  0  0  0
    5.5524    0.4430    0.0000 C   0  0  0  0  0  0  0  0  0  0  0  0
    6.5688    3.6326    0.0000 C   0  0  0  0  0  0  0  0  0  0  0  0
    7.2833    4.0451    0.0000 C   0  0  0  0  0  0  0  0  0  0  0  0
    5.8543    4.0451    0.0000 C   0  0  0  0  0  0  0  0  0  0  0  0
    7.2833    4.8701    0.0000 C   0  0  0  0  0  0  0  0  0  0  0  0
    5.8543    4.8701    0.0000 C   0  0  0  0  0  0  0  0  0  0  0  0
    8.0208    3.6039    0.0000 C   0  0  0  0  0  0  0  0  0  0  0  0
    8.0208    5.3111    0.0000 C   0  0  0  0  0  0  0  0  0  0  0  0
    5.1399    5.2826    0.0000 C   0  0  0  0  0  0  0  0  0  0  0  0
    8.7684    4.0279    0.0000 C   0  0  0  0  0  0  0  0  0  0  0  0
    8.7684    4.8872    0.0000 C   0  0  0  0  0  0  0  0  0  0  0  0
    5.1399    6.1076    0.0000 C   0  0  0  0  0  0  0  0  0  0  0  0
    4.4254    4.8701    0.0000 C   0  0  0  0  0  0  0  0  0  0  0  0
    4.4254    6.5201    0.0000 C   0  0  0  0  0  0  0  0  0  0  0  0
    3.7108    5.2826    0.0000 C   0  0  0  0  0  0  0  0  0  0  0  0
    3.7108    6.1076    0.0000 C   0  0  0  0  0  0  0  0  0  0  0  0
  1 22  1  0  0  0  0
  2 17  1  0  0  0  0
  2 18  1  0  0  0  0
  3  5  1  0  0  0  0
  3  6  1  0  0  0  0
  4  7  1  0  0  0  0
  4 14  2  0  0  0  0
  5  9  1  0  0  0  0
  5 12  1  0  0  0  0
  5 13  1  0  0  0  0
  6  8  1  0  0  0  0
  6 10  1  0  0  0  0
  6 11  1  0  0  0  0
  7  8  1  0  0  0  0
  7  9  1  0  0  0  0
 14 15  1  0  0  0  0
 14 16  1  0  0  0  0
 15 17  1  0  0  0  0
 15 19  2  0  0  0  0
 16 18  2  0  0  0  0
 17 20  2  0  0  0  0
 18 21  1  0  0  0  0
 19 22  1  0  0  0  0
 20 23  1  0  0  0  0
 21 24  2  0  0  0  0
 21 25  1  0  0  0  0
 22 23  2  0  0  0  0
 24 26  1  0  0  0  0
 25 27  2  0  0  0  0
 26 28  2  0  0  0  0
 27 28  1  0  0  0  0
M  CHG  1   4   1
M  END
> <From>
www.bindingDB.org

> <BindingDB Reactant_set_id>
95213

> <Ligand InChI>
InChI=1S/C24H27ClN2O/c1-23(2)14-18(15-24(3,4)27-23)26-20-13-22(16-8-6-5-7-9-16)28-21-11-10-17(25)12-19(20)21/h5-13,18,27H,14-15H2,1-4H3/p+1/b26-20+

> <Ligand InChI Key>
KMGDKZROVQMFQA-LHLOQNFPSA-O

> <BindingDB MonomerID>
51314

> <BindingDB Ligand Name>
(6-chloranyl-2-phenyl-chromen-4-ylidene)-(2,2,6,6-tetramethylpiperidin-4-yl)azanium;tetrafluoroborate::(6-chloro-2-phenyl-1-benzopyran-4-ylidene)-(2,2,6,6-tetramethyl-4-piperidinyl)ammonium;tetrafluoroborate::(6-chloro-2-phenyl-chromen-4-ylidene)-(2,2,6,6-tetramethyl-4-piperidyl)ammonium;tetrafluoroborate::(6-chloro-2-phenylchromen-4-ylidene)-(2,2,6,6-tetramethylpiperidin-4-yl)azanium;tetrafluoroborate::MLS000727607::N-[(4E)-6-chloro-2-phenyl-4H-chromen-4-ylidene]-2,2,6,6-tetramethylpiperidin-4-aminium::SMR000306304::cid_16188549

> <Target Name>
DNA repair protein RAD51 homolog 1

> <Target Source Organism According to Curator or DataSource>
Homo sapiens

> <Ki (nM)>


> <IC50 (nM)>
 14690

> <Kd (nM)>


> <EC50 (nM)>


> <kon (M-1-s-1)>


> <koff (s-1)>


> <pH>


> <Temp C>


> <Curation/DataSource>
PubChem

> <Article DOI>


> <BindingDB Entry DOI>
10.7270/Q2QN6558

> <PMID>


> <PubChem AID>
aid1437

> <Patent Number>


> <Authors>
PubChem, PC

> <Date of publication>
11/25/2008

> <Date in BindingDB>
5/31/2011

> <Institution>
PCMD

> <Link to Ligand in BindingDB>
http://www.bindingdb.org/bind/chemsearch/marvin/MolStructure.jsp?monomerid=51314

> <Link to Ligand-Target Pair in BindingDB>
http://www.bindingdb.org/jsp/dbsearch/PrimarySearch_ki.jsp?energyterm=kJ/mole&tag=pol&polymerid=4676&target=DNA+repair+protein+RAD51+homolog+1&column=ki&startPg=0&Increment=50&submit=Search

> <Link to Ligand-Target Pair in BindingDB>
http://www.bindingdb.org/jsp/dbsearch/PrimarySearch_ki.jsp?energyterm=kJ/mole&tag=r21&monomerid=51314&enzyme=DNA+repair+protein+RAD51+homolog+1&column=ki&startPg=0&Increment=50&submit=Search

> <Ligand HET ID in PDB>


> <PDB ID(s) for Ligand-Target Complex>


> <PubChem CID of Ligand>
46500345

> <PubChem SID of Ligand>
252631539

> <ChEBI ID of Ligand>


> <ChEMBL ID of Ligand>


> <DrugBank ID of Ligand>


> <IUPHAR_GRAC ID of Ligand>


> <KEGG ID of Ligand>


> <ZINC ID of Ligand>
ZINC19789816

> <Number of Protein Chains in Target (bigger than 1 implies a multichain complex)>
1

> <BindingDB Target Chain Sequence>
MAMQMQLEANADTSVEEESFGPQPISRLEQCGINANDVKKLEEAGFHTVEAVAYAPKKELINIKGISEAKADKILAEAAKLVPMGFTTATEFHQRRSEIIQITTGSKELDKLLQGGIETGSITEMFGEFRTGKTQICHTLAVTCQLPIDRGGGEGKAMYIDTEGTFRPERLLAVAERYGLSGSDVLDNVAYARAFNTDHQTQLLYQASAMMVESRYALLIVDSATALYRTDYSGRGELSARQMHLARFLRMLLRLADEFGVAVVITNQVVAQVDGAAMFAADPKKPIGGNIIAHASTTRLYLRKGRGETRICKIYDSPCLPEAEAMFAINADGVGDAKD

> <PDB ID(s) of Target Chain>
1N0W,5JZC,5NP7,5NWL,8BQ2,8BR2,8BSC

> <UniProt (SwissProt) Recommended Name of Target Chain>
DNA repair protein RAD51 homolog 1

> <UniProt (SwissProt) Entry Name of Target Chain>
RAD51_HUMAN

> <UniProt (SwissProt) Primary ID of Target Chain>
Q06609

> <UniProt (SwissProt) Secondary ID(s) of Target Chain>
B0FXP0 B2R8T6 Q6FHX9 Q6ZNA8 Q9BV60

> <UniProt (SwissProt) Alternative ID(s) of Target Chain>


> <UniProt (TrEMBL) Submitted Name of Target Chain>


> <UniProt (TrEMBL) Entry Name of Target Chain>


> <UniProt (TrEMBL) Primary ID of Target Chain>


> <UniProt (TrEMBL) Secondary ID(s) of Target Chain>


> <UniProt (TrEMBL) Alternative ID(s) of Target Chain>


$$$$
4108107
  Mrv0541 11251416042D          

 25 28  0  0  1  0            999 V2000
    2.9002    2.5585    0.0000 O   0  0  0  0  0  0  0  0  0  0  0  0
    5.2223   -0.9085    0.0000 O   0  0  0  0  0  0  0  0  0  0  0  0
    4.5079   -1.3210    0.0000 O   0  0  0  0  0  0  0  0  0  0  0  0
    4.5079    0.3290    0.0000 N   0  0  0  0  0  0  0  0  0  0  0  0
    5.2223    1.5665    0.0000 N   0  0  0  0  0  0  0  0  0  0  0  0
    3.7934   -0.0835    0.0000 N   0  0  0  0  0  0  0  0  0  0  0  0
    4.5079    1.1540    0.0000 C   0  0  0  0  0  0  0  0  0  0  0  0
    5.9369    1.1540    0.0000 C   0  0  0  0  0  0  0  0  0  0  0  0
    3.7934    1.5665    0.0000 C   0  0  0  0  0  0  0  0  0  0  0  0
    5.9369    0.3290    0.0000 C   0  0  0  0  0  0  0  0  0  0  0  0
    5.2223   -0.0835    0.0000 C   0  0  0  0  0  0  0  0  0  0  0  0
    6.6743    1.5951    0.0000 C   0  0  0  0  0  0  0  0  0  0  0  0
    6.6743   -0.1121    0.0000 C   0  0  0  0  0  0  0  0  0  0  0  0
    3.0397    1.2310    0.0000 C   0  0  0  0  0  0  0  0  0  0  0  0
    3.7072    2.3870    0.0000 C   0  0  0  0  0  0  0  0  0  0  0  0
    7.4219    1.1712    0.0000 C   0  0  0  0  0  0  0  0  0  0  0  0
    7.4219    0.3118    0.0000 C   0  0  0  0  0  0  0  0  0  0  0  0
    3.7934   -0.9085    0.0000 C   0  0  0  0  0  0  0  0  0  0  0  0
    2.4877    1.8440    0.0000 C   0  0  0  0  0  0  0  0  0  0  0  0
    3.0789   -1.3210    0.0000 C   0  0  0  0  0  0  0  0  0  0  0  0
    2.3644   -0.9085    0.0000 C   0  0  0  0  0  0  0  0  0  0  0  0
    3.0789   -2.1460    0.0000 C   0  0  0  0  0  0  0  0  0  0  0  0
    1.6500   -1.3210    0.0000 C   0  0  0  0  0  0  0  0  0  0  0  0
    2.3644   -2.5585    0.0000 C   0  0  0  0  0  0  0  0  0  0  0  0
    1.6500   -2.1460    0.0000 C   0  0  0  0  0  0  0  0  0  0  0  0
  1 15  1  0  0  0  0
  1 19  1  0  0  0  0
  2 11  2  0  0  0  0
  3 18  2  0  0  0  0
  4  6  1  0  0  0  0
  4  7  1  0  0  0  0
  4 11  1  0  0  0  0
  5  7  1  0  0  0  0
  5  8  1  0  0  0  0
  6 18  1  0  0  0  0
  7  9  1  0  0  0  0
  8 10  2  0  0  0  0
  8 12  1  0  0  0  0
  9 14  1  0  0  0  0
  9 15  2  0  0  0  0
 10 11  1  0  0  0  0
 10 13  1  0  0  0  0
 12 16  2  0  0  0  0
 13 17  2  0  0  0  0
 14 19  2  0  0  0  0
 16 17  1  0  0  0  0
 18 20  1  0  0  0  0
 20 21  2  0  0  0  0
 20 22  1  0  0  0  0
 21 23  1  0  0  0  0
 22 24  2  0  0  0  0
 23 25  2  0  0  0  0
 24 25  1  0  0  0  0
M  END
> <From>
www.bindingDB.org

> <BindingDB Reactant_set_id>
95214

> <Ligand InChI>
InChI=1S/C19H15N3O3/c23-18(13-6-2-1-3-7-13)21-22-17(14-10-11-25-12-14)20-16-9-5-4-8-15(16)19(22)24/h1-12,17,20H,(H,21,23)

> <Ligand InChI Key>
VBRLRQNXXZYTJV-UHFFFAOYSA-N

> <BindingDB MonomerID>
51330

> <BindingDB Ligand Name>
MLS000727694::N-[2-(3-furanyl)-4-oxo-1,2-dihydroquinazolin-3-yl]benzamide::N-[2-(3-furyl)-4-keto-1,2-dihydroquinazolin-3-yl]benzamide::N-[2-(3-furyl)-4-oxo-1,4-dihydroquinazolin-3(2H)-yl]benzamide::N-[2-(furan-3-yl)-4-oxidanylidene-1,2-dihydroquinazolin-3-yl]benzamide::N-[2-(furan-3-yl)-4-oxo-1,2-dihydroquinazolin-3-yl]benzamide::SMR000306391::cid_4108107

> <Target Name>
DNA repair protein RAD51 homolog 1

> <Target Source Organism According to Curator or DataSource>
Homo sapiens

> <Ki (nM)>


> <IC50 (nM)>
 53000

> <Kd (nM)>


> <EC50 (nM)>


> <kon (M-1-s-1)>


> <koff (s-1)>


> <pH>


> <Temp C>


> <Curation/DataSource>
PubChem

> <Article DOI>


> <BindingDB Entry DOI>
10.7270/Q2QN6558

> <PMID>


> <PubChem AID>
aid1437

> <Patent Number>


> <Authors>
PubChem, PC

> <Date of publication>
11/25/2008

> <Date in BindingDB>
5/31/2011

> <Institution>
PCMD

> <Link to Ligand in BindingDB>
http://www.bindingdb.org/bind/chemsearch/marvin/MolStructure.jsp?monomerid=51330

> <Link to Ligand-Target Pair in BindingDB>
http://www.bindingdb.org/jsp/dbsearch/PrimarySearch_ki.jsp?energyterm=kJ/mole&tag=pol&polymerid=4676&target=DNA+repair+protein+RAD51+homolog+1&column=ki&startPg=0&Increment=50&submit=Search

> <Link to Ligand-Target Pair in BindingDB>
http://www.bindingdb.org/jsp/dbsearch/PrimarySearch_ki.jsp?energyterm=kJ/mole&tag=r21&monomerid=51330&enzyme=DNA+repair+protein+RAD51+homolog+1&column=ki&startPg=0&Increment=50&submit=Search

> <Ligand HET ID in PDB>


> <PDB ID(s) for Ligand-Target Complex>


> <PubChem CID of Ligand>
4108107

> <PubChem SID of Ligand>
252631553

> <ChEBI ID of Ligand>


> <ChEMBL ID of Ligand>


> <DrugBank ID of Ligand>


> <IUPHAR_GRAC ID of Ligand>


> <KEGG ID of Ligand>


> <ZINC ID of Ligand>
ZINC04478320

> <Number of Protein Chains in Target (bigger than 1 implies a multichain complex)>
1

> <BindingDB Target Chain Sequence>
MAMQMQLEANADTSVEEESFGPQPISRLEQCGINANDVKKLEEAGFHTVEAVAYAPKKELINIKGISEAKADKILAEAAKLVPMGFTTATEFHQRRSEIIQITTGSKELDKLLQGGIETGSITEMFGEFRTGKTQICHTLAVTCQLPIDRGGGEGKAMYIDTEGTFRPERLLAVAERYGLSGSDVLDNVAYARAFNTDHQTQLLYQASAMMVESRYALLIVDSATALYRTDYSGRGELSARQMHLARFLRMLLRLADEFGVAVVITNQVVAQVDGAAMFAADPKKPIGGNIIAHASTTRLYLRKGRGETRICKIYDSPCLPEAEAMFAINADGVGDAKD

> <PDB ID(s) of Target Chain>
1N0W,5JZC,5NP7,5NWL,8BQ2,8BR2,8BSC

> <UniProt (SwissProt) Recommended Name of Target Chain>
DNA repair protein RAD51 homolog 1

> <UniProt (SwissProt) Entry Name of Target Chain>
RAD51_HUMAN

> <UniProt (SwissProt) Primary ID of Target Chain>
Q06609

> <UniProt (SwissProt) Secondary ID(s) of Target Chain>
B0FXP0 B2R8T6 Q6FHX9 Q6ZNA8 Q9BV60

> <UniProt (SwissProt) Alternative ID(s) of Target Chain>


> <UniProt (TrEMBL) Submitted Name of Target Chain>


> <UniProt (TrEMBL) Entry Name of Target Chain>


> <UniProt (TrEMBL) Primary ID of Target Chain>


> <UniProt (TrEMBL) Secondary ID(s) of Target Chain>


> <UniProt (TrEMBL) Alternative ID(s) of Target Chain>


$$$$
5346304
  Mrv0541 11251416042D          

 23 24  0  0  0  0            999 V2000
    2.3645   -0.6188    0.0000 O   0  0  0  0  0  0  0  0  0  0  0  0
    2.3645   -2.2688    0.0000 O   0  0  0  0  0  0  0  0  0  0  0  0
    3.7935    1.8563    0.0000 O   0  0  0  0  0  0  0  0  0  0  0  0
    8.0804    1.8563    0.0000 O   0  5  0  0  0  0  0  0  0  0  0  0
    7.3659    0.6188    0.0000 O   0  0  0  0  0  0  0  0  0  0  0  0
    7.3659    1.4438    0.0000 N   0  3  0  0  0  0  0  0  0  0  0  0
    3.7935   -0.6188    0.0000 C   0  0  0  0  0  0  0  0  0  0  0  0
    3.0790   -1.0313    0.0000 C   0  0  0  0  0  0  0  0  0  0  0  0
    3.0790   -1.8563    0.0000 C   0  0  0  0  0  0  0  0  0  0  0  0
    4.5080   -1.0313    0.0000 C   0  0  0  0  0  0  0  0  0  0  0  0
    3.7935    0.2063    0.0000 C   0  0  0  0  0  0  0  0  0  0  0  0
    5.2224    1.8563    0.0000 C   0  0  0  0  0  0  0  0  0  0  0  0
    3.7935   -2.2688    0.0000 C   0  0  0  0  0  0  0  0  0  0  0  0
    4.5080   -1.8563    0.0000 C   0  0  0  0  0  0  0  0  0  0  0  0
    4.5080    1.4438    0.0000 C   0  0  0  0  0  0  0  0  0  0  0  0
    4.5080    0.6188    0.0000 C   0  0  0  0  0  0  0  0  0  0  0  0
    5.9370    1.4438    0.0000 C   0  0  0  0  0  0  0  0  0  0  0  0
    5.2224    2.6813    0.0000 C   0  0  0  0  0  0  0  0  0  0  0  0
    6.6515    1.8563    0.0000 C   0  0  0  0  0  0  0  0  0  0  0  0
    5.9370    3.0938    0.0000 C   0  0  0  0  0  0  0  0  0  0  0  0
    6.6515    2.6813    0.0000 C   0  0  0  0  0  0  0  0  0  0  0  0
    1.6500   -1.0313    0.0000 C   0  0  0  0  0  0  0  0  0  0  0  0
    2.3645   -3.0938    0.0000 C   0  0  0  0  0  0  0  0  0  0  0  0
  1  8  1  0  0  0  0
  1 22  1  0  0  0  0
  2  9  1  0  0  0  0
  2 23  1  0  0  0  0
  3 15  2  0  0  0  0
  4  6  1  0  0  0  0
  5  6  2  0  0  0  0
  6 19  1  0  0  0  0
  7  8  2  0  0  0  0
  7 10  1  0  0  0  0
  7 11  1  0  0  0  0
  8  9  1  0  0  0  0
  9 13  2  0  0  0  0
 10 14  2  0  0  0  0
 11 16  2  0  0  0  0
 12 15  1  0  0  0  0
 12 17  2  0  0  0  0
 12 18  1  0  0  0  0
 13 14  1  0  0  0  0
 15 16  1  0  0  0  0
 17 19  1  0  0  0  0
 18 20  2  0  0  0  0
 19 21  2  0  0  0  0
 20 21  1  0  0  0  0
M  CHG  2   4  -1   6   1
M  END
> <From>
www.bindingDB.org

> <BindingDB Reactant_set_id>
95215

> <Ligand InChI>
InChI=1S/C17H15NO5/c1-22-16-8-4-5-12(17(16)23-2)9-10-15(19)13-6-3-7-14(11-13)18(20)21/h3-11H,1-2H3/b10-9+

> <Ligand InChI Key>
KDFMVUZUVRTZJF-MDZDMXLPSA-N

> <BindingDB MonomerID>
51331

> <BindingDB Ligand Name>
(E)-3-(2,3-dimethoxyphenyl)-1-(3-nitrophenyl)-2-propen-1-one::(E)-3-(2,3-dimethoxyphenyl)-1-(3-nitrophenyl)prop-2-en-1-one::MLS000684566::SMR000267915::cid_5346304

> <Target Name>
DNA repair protein RAD51 homolog 1

> <Target Source Organism According to Curator or DataSource>
Homo sapiens

> <Ki (nM)>


> <IC50 (nM)>
 53000

> <Kd (nM)>


> <EC50 (nM)>


> <kon (M-1-s-1)>


> <koff (s-1)>


> <pH>


> <Temp C>


> <Curation/DataSource>
PubChem

> <Article DOI>


> <BindingDB Entry DOI>
10.7270/Q2QN6558

> <PMID>


> <PubChem AID>
aid1437

> <Patent Number>


> <Authors>
PubChem, PC

> <Date of publication>
11/25/2008

> <Date in BindingDB>
5/31/2011

> <Institution>
PCMD

> <Link to Ligand in BindingDB>
http://www.bindingdb.org/bind/chemsearch/marvin/MolStructure.jsp?monomerid=51331

> <Link to Ligand-Target Pair in BindingDB>
http://www.bindingdb.org/jsp/dbsearch/PrimarySearch_ki.jsp?energyterm=kJ/mole&tag=pol&polymerid=4676&target=DNA+repair+protein+RAD51+homolog+1&column=ki&startPg=0&Increment=50&submit=Search

> <Link to Ligand-Target Pair in BindingDB>
http://www.bindingdb.org/jsp/dbsearch/PrimarySearch_ki.jsp?energyterm=kJ/mole&tag=r21&monomerid=51331&enzyme=DNA+repair+protein+RAD51+homolog+1&column=ki&startPg=0&Increment=50&submit=Search

> <Ligand HET ID in PDB>


> <PDB ID(s) for Ligand-Target Complex>


> <PubChem CID of Ligand>
5346304

> <PubChem SID of Ligand>
252631554

> <ChEBI ID of Ligand>


> <ChEMBL ID of Ligand>


> <DrugBank ID of Ligand>


> <IUPHAR_GRAC ID of Ligand>


> <KEGG ID of Ligand>


> <ZINC ID of Ligand>
ZINC19727825

> <Number of Protein Chains in Target (bigger than 1 implies a multichain complex)>
1

> <BindingDB Target Chain Sequence>
MAMQMQLEANADTSVEEESFGPQPISRLEQCGINANDVKKLEEAGFHTVEAVAYAPKKELINIKGISEAKADKILAEAAKLVPMGFTTATEFHQRRSEIIQITTGSKELDKLLQGGIETGSITEMFGEFRTGKTQICHTLAVTCQLPIDRGGGEGKAMYIDTEGTFRPERLLAVAERYGLSGSDVLDNVAYARAFNTDHQTQLLYQASAMMVESRYALLIVDSATALYRTDYSGRGELSARQMHLARFLRMLLRLADEFGVAVVITNQVVAQVDGAAMFAADPKKPIGGNIIAHASTTRLYLRKGRGETRICKIYDSPCLPEAEAMFAINADGVGDAKD

> <PDB ID(s) of Target Chain>
1N0W,5JZC,5NP7,5NWL,8BQ2,8BR2,8BSC

> <UniProt (SwissProt) Recommended Name of Target Chain>
DNA repair protein RAD51 homolog 1

> <UniProt (SwissProt) Entry Name of Target Chain>
RAD51_HUMAN

> <UniProt (SwissProt) Primary ID of Target Chain>
Q06609

> <UniProt (SwissProt) Secondary ID(s) of Target Chain>
B0FXP0 B2R8T6 Q6FHX9 Q6ZNA8 Q9BV60

> <UniProt (SwissProt) Alternative ID(s) of Target Chain>


> <UniProt (TrEMBL) Submitted Name of Target Chain>


> <UniProt (TrEMBL) Entry Name of Target Chain>


> <UniProt (TrEMBL) Primary ID of Target Chain>


> <UniProt (TrEMBL) Secondary ID(s) of Target Chain>


> <UniProt (TrEMBL) Alternative ID(s) of Target Chain>


$$$$
16189239
  Mrv0541 11251416042D          

 33 35  0  0  0  0            999 V2000
    2.6526    3.5588    0.0000 S   0  0  0  0  0  0  0  0  0  0  0  0
    7.6717    3.5082    0.0000 S   0  0  0  0  0  0  0  0  0  0  0  0
    3.9591    2.7938    0.0000 O   0  0  0  0  0  0  0  0  0  0  0  0
    1.1575    5.8727    0.0000 O   0  0  0  0  0  0  0  0  0  0  0  0
    7.6717    2.6832    0.0000 O   0  0  0  0  0  0  0  0  0  0  0  0
    7.6717    4.3332    0.0000 O   0  0  0  0  0  0  0  0  0  0  0  0
    3.9591    4.2227    0.0000 N   0  0  0  0  0  0  0  0  0  0  0  0
    3.9591    7.0806    0.0000 N   0  0  0  0  0  0  0  0  0  0  0  0
    2.6526    4.8866    0.0000 N   0  0  0  0  0  0  0  0  0  0  0  0
    8.4967    3.5082    0.0000 N   0  0  0  0  0  0  0  0  0  0  0  0
    4.3716    4.9372    0.0000 C   0  0  0  0  0  0  0  0  0  0  0  0
    3.9591    5.6517    0.0000 C   0  0  0  0  0  0  0  0  0  0  0  0
    4.3716    6.3662    0.0000 C   0  0  0  0  0  0  0  0  0  0  0  0
    3.1341    4.2227    0.0000 C   0  0  0  0  0  0  0  0  0  0  0  0
    4.3716    3.5082    0.0000 C   0  0  0  0  0  0  0  0  0  0  0  0
    1.8720    3.8102    0.0000 C   0  0  0  0  0  0  0  0  0  0  0  0
    5.1966    3.5082    0.0000 C   0  0  0  0  0  0  0  0  0  0  0  0
    1.8720    4.6352    0.0000 C   0  0  0  0  0  0  0  0  0  0  0  0
    1.1575    3.3977    0.0000 C   0  0  0  0  0  0  0  0  0  0  0  0
    6.8467    3.5082    0.0000 C   0  0  0  0  0  0  0  0  0  0  0  0
    5.6091    2.7938    0.0000 C   0  0  0  0  0  0  0  0  0  0  0  0
    5.6091    4.2227    0.0000 C   0  0  0  0  0  0  0  0  0  0  0  0
    1.1575    5.0477    0.0000 C   0  0  0  0  0  0  0  0  0  0  0  0
    4.3716    7.7951    0.0000 C   0  0  0  0  0  0  0  0  0  0  0  0
    3.1341    7.0806    0.0000 C   0  0  0  0  0  0  0  0  0  0  0  0
    6.4342    2.7938    0.0000 C   0  0  0  0  0  0  0  0  0  0  0  0
    6.4342    4.2227    0.0000 C   0  0  0  0  0  0  0  0  0  0  0  0
    0.4430    3.8102    0.0000 C   0  0  0  0  0  0  0  0  0  0  0  0
    0.4430    4.6352    0.0000 C   0  0  0  0  0  0  0  0  0  0  0  0
    1.1575    2.5727    0.0000 C   0  0  0  0  0  0  0  0  0  0  0  0
    8.9092    2.7938    0.0000 C   0  0  0  0  0  0  0  0  0  0  0  0
    8.9092    4.2227    0.0000 C   0  0  0  0  0  0  0  0  0  0  0  0
    0.4430    6.2852    0.0000 C   0  0  0  0  0  0  0  0  0  0  0  0
  1 14  1  0  0  0  0
  1 16  1  0  0  0  0
  2  5  2  0  0  0  0
  2  6  2  0  0  0  0
  2 10  1  0  0  0  0
  2 20  1  0  0  0  0
  3 15  2  0  0  0  0
  4 23  1  0  0  0  0
  4 33  1  0  0  0  0
  7 11  1  0  0  0  0
  7 14  1  0  0  0  0
  7 15  1  0  0  0  0
  8 13  1  0  0  0  0
  8 24  1  0  0  0  0
  8 25  1  0  0  0  0
  9 14  2  0  0  0  0
  9 18  1  0  0  0  0
 10 31  1  0  0  0  0
 10 32  1  0  0  0  0
 11 12  1  0  0  0  0
 12 13  1  0  0  0  0
 15 17  1  0  0  0  0
 16 18  1  0  0  0  0
 16 19  2  0  0  0  0
 17 21  2  0  0  0  0
 17 22  1  0  0  0  0
 18 23  2  0  0  0  0
 19 28  1  0  0  0  0
 19 30  1  0  0  0  0
 20 26  2  0  0  0  0
 20 27  1  0  0  0  0
 21 26  1  0  0  0  0
 22 27  2  0  0  0  0
 23 29  1  0  0  0  0
 28 29  2  0  0  0  0
M  END
> <From>
www.bindingDB.org

> <BindingDB Reactant_set_id>
95216

> <Ligand InChI>
InChI=1S/C23H30N4O4S2/c1-16-8-13-19(31-6)20-21(16)32-23(24-20)27(15-7-14-25(2)3)22(28)17-9-11-18(12-10-17)33(29,30)26(4)5/h8-13H,7,14-15H2,1-6H3

> <Ligand InChI Key>
HOPMYOWRXLCEPH-UHFFFAOYSA-N

> <BindingDB MonomerID>
51332

> <BindingDB Ligand Name>
MLS000684942::N-[3-(dimethylamino)propyl]-4-(dimethylsulfamoyl)-N-(4-methoxy-7-methyl-1,3-benzothiazol-2-yl)benzamide;hydrochloride::SMR000324900::cid_16189239

> <Target Name>
DNA repair protein RAD51 homolog 1

> <Target Source Organism According to Curator or DataSource>
Homo sapiens

> <Ki (nM)>


> <IC50 (nM)>
 53000

> <Kd (nM)>


> <EC50 (nM)>


> <kon (M-1-s-1)>


> <koff (s-1)>


> <pH>


> <Temp C>


> <Curation/DataSource>
PubChem

> <Article DOI>


> <BindingDB Entry DOI>
10.7270/Q2QN6558

> <PMID>


> <PubChem AID>
aid1437

> <Patent Number>


> <Authors>
PubChem, PC

> <Date of publication>
11/25/2008

> <Date in BindingDB>
5/31/2011

> <Institution>
PCMD

> <Link to Ligand in BindingDB>
http://www.bindingdb.org/bind/chemsearch/marvin/MolStructure.jsp?monomerid=51332

> <Link to Ligand-Target Pair in BindingDB>
http://www.bindingdb.org/jsp/dbsearch/PrimarySearch_ki.jsp?energyterm=kJ/mole&tag=pol&polymerid=4676&target=DNA+repair+protein+RAD51+homolog+1&column=ki&startPg=0&Increment=50&submit=Search

> <Link to Ligand-Target Pair in BindingDB>
http://www.bindingdb.org/jsp/dbsearch/PrimarySearch_ki.jsp?energyterm=kJ/mole&tag=r21&monomerid=51332&enzyme=DNA+repair+protein+RAD51+homolog+1&column=ki&startPg=0&Increment=50&submit=Search

> <Ligand HET ID in PDB>


> <PDB ID(s) for Ligand-Target Complex>


> <PubChem CID of Ligand>
16189240

> <PubChem SID of Ligand>
252631555

> <ChEBI ID of Ligand>


> <ChEMBL ID of Ligand>


> <DrugBank ID of Ligand>


> <IUPHAR_GRAC ID of Ligand>


> <KEGG ID of Ligand>


> <ZINC ID of Ligand>
ZINC01055319

> <Number of Protein Chains in Target (bigger than 1 implies a multichain complex)>
1

> <BindingDB Target Chain Sequence>
MAMQMQLEANADTSVEEESFGPQPISRLEQCGINANDVKKLEEAGFHTVEAVAYAPKKELINIKGISEAKADKILAEAAKLVPMGFTTATEFHQRRSEIIQITTGSKELDKLLQGGIETGSITEMFGEFRTGKTQICHTLAVTCQLPIDRGGGEGKAMYIDTEGTFRPERLLAVAERYGLSGSDVLDNVAYARAFNTDHQTQLLYQASAMMVESRYALLIVDSATALYRTDYSGRGELSARQMHLARFLRMLLRLADEFGVAVVITNQVVAQVDGAAMFAADPKKPIGGNIIAHASTTRLYLRKGRGETRICKIYDSPCLPEAEAMFAINADGVGDAKD

> <PDB ID(s) of Target Chain>
1N0W,5JZC,5NP7,5NWL,8BQ2,8BR2,8BSC

> <UniProt (SwissProt) Recommended Name of Target Chain>
DNA repair protein RAD51 homolog 1

> <UniProt (SwissProt) Entry Name of Target Chain>
RAD51_HUMAN

> <UniProt (SwissProt) Primary ID of Target Chain>
Q06609

> <UniProt (SwissProt) Secondary ID(s) of Target Chain>
B0FXP0 B2R8T6 Q6FHX9 Q6ZNA8 Q9BV60

> <UniProt (SwissProt) Alternative ID(s) of Target Chain>


> <UniProt (TrEMBL) Submitted Name of Target Chain>


> <UniProt (TrEMBL) Entry Name of Target Chain>


> <UniProt (TrEMBL) Primary ID of Target Chain>


> <UniProt (TrEMBL) Secondary ID(s) of Target Chain>


> <UniProt (TrEMBL) Alternative ID(s) of Target Chain>


$$$$
5738263
  Mrv0541 11251415582D          

 26 29  0  0  0  0            999 V2000
    5.2223   -1.6500    0.0000 O   0  0  0  0  0  0  0  0  0  0  0  0
    4.5079   -0.4125    0.0000 N   0  0  0  0  0  0  0  0  0  0  0  0
    5.2223    0.8250    0.0000 N   0  0  0  0  0  0  0  0  0  0  0  0
    1.6500    2.0625    0.0000 N   0  0  0  0  0  0  0  0  0  0  0  0
    3.7934   -0.8250    0.0000 C   0  0  0  0  0  0  0  0  0  0  0  0
    4.5079    0.4125    0.0000 C   0  0  0  0  0  0  0  0  0  0  0  0
    5.9369   -0.4125    0.0000 C   0  0  0  0  0  0  0  0  0  0  0  0
    5.2223   -0.8250    0.0000 C   0  0  0  0  0  0  0  0  0  0  0  0
    3.7934   -1.6500    0.0000 C   0  0  0  0  0  0  0  0  0  0  0  0
    5.9369    0.4125    0.0000 C   0  0  0  0  0  0  0  0  0  0  0  0
    6.6743   -0.8536    0.0000 C   0  0  0  0  0  0  0  0  0  0  0  0
    3.7934    0.8250    0.0000 C   0  0  0  0  0  0  0  0  0  0  0  0
    6.6743    0.8536    0.0000 C   0  0  0  0  0  0  0  0  0  0  0  0
    3.0789   -2.0625    0.0000 C   0  0  0  0  0  0  0  0  0  0  0  0
    4.5079   -2.0625    0.0000 C   0  0  0  0  0  0  0  0  0  0  0  0
    7.4219   -0.4297    0.0000 C   0  0  0  0  0  0  0  0  0  0  0  0
    7.4219    0.4297    0.0000 C   0  0  0  0  0  0  0  0  0  0  0  0
    3.7934    1.6500    0.0000 C   0  0  0  0  0  0  0  0  0  0  0  0
    3.0789   -2.8875    0.0000 C   0  0  0  0  0  0  0  0  0  0  0  0
    4.5079   -2.8875    0.0000 C   0  0  0  0  0  0  0  0  0  0  0  0
    3.7934   -3.3000    0.0000 C   0  0  0  0  0  0  0  0  0  0  0  0
    3.0789    2.0625    0.0000 C   0  0  0  0  0  0  0  0  0  0  0  0
    3.0789    2.8875    0.0000 C   0  0  0  0  0  0  0  0  0  0  0  0
    2.3644    1.6500    0.0000 C   0  0  0  0  0  0  0  0  0  0  0  0
    2.3644    3.3000    0.0000 C   0  0  0  0  0  0  0  0  0  0  0  0
    1.6500    2.8875    0.0000 C   0  0  0  0  0  0  0  0  0  0  0  0
  1  8  2  0  0  0  0
  2  5  1  0  0  0  0
  2  6  1  0  0  0  0
  2  8  1  0  0  0  0
  3  6  2  0  0  0  0
  3 10  1  0  0  0  0
  4 24  2  0  0  0  0
  4 26  1  0  0  0  0
  5  9  1  0  0  0  0
  6 12  1  0  0  0  0
  7  8  1  0  0  0  0
  7 10  1  0  0  0  0
  7 11  2  0  0  0  0
  9 14  2  0  0  0  0
  9 15  1  0  0  0  0
 10 13  2  0  0  0  0
 11 16  1  0  0  0  0
 12 18  2  0  0  0  0
 13 17  1  0  0  0  0
 14 19  1  0  0  0  0
 15 20  2  0  0  0  0
 16 17  2  0  0  0  0
 18 22  1  0  0  0  0
 19 21  2  0  0  0  0
 20 21  1  0  0  0  0
 22 23  2  0  0  0  0
 22 24  1  0  0  0  0
 23 25  1  0  0  0  0
 25 26  2  0  0  0  0
M  END
> <From>
www.bindingDB.org

> <BindingDB Reactant_set_id>
95217

> <Ligand InChI>
InChI=1S/C22H17N3O/c26-22-19-10-4-5-11-20(19)24-21(13-12-17-9-6-14-23-15-17)25(22)16-18-7-2-1-3-8-18/h1-15H,16H2/b13-12+

> <Ligand InChI Key>
GEKDQXSPTHHANP-OUKQBFOZSA-N

> <BindingDB MonomerID>
48804

> <BindingDB Ligand Name>
3-(phenylmethyl)-2-[(E)-2-(3-pyridinyl)ethenyl]-4-quinazolinone::3-(phenylmethyl)-2-[(E)-2-pyridin-3-ylethenyl]quinazolin-4-one::3-benzyl-2-[(E)-2-(3-pyridyl)vinyl]quinazolin-4-one::3-benzyl-2-[(E)-2-pyridin-3-ylethenyl]quinazolin-4-one::MLS000709026::SMR000289793::cid_5738263

> <Target Name>
DNA repair protein RAD51 homolog 1

> <Target Source Organism According to Curator or DataSource>
Homo sapiens

> <Ki (nM)>


> <IC50 (nM)>
 36950

> <Kd (nM)>


> <EC50 (nM)>


> <kon (M-1-s-1)>


> <koff (s-1)>


> <pH>


> <Temp C>


> <Curation/DataSource>
PubChem

> <Article DOI>


> <BindingDB Entry DOI>
10.7270/Q2QN6558

> <PMID>


> <PubChem AID>
aid1437

> <Patent Number>


> <Authors>
PubChem, PC

> <Date of publication>
11/25/2008

> <Date in BindingDB>
5/31/2011

> <Institution>
PCMD

> <Link to Ligand in BindingDB>
http://www.bindingdb.org/bind/chemsearch/marvin/MolStructure.jsp?monomerid=48804

> <Link to Ligand-Target Pair in BindingDB>
http://www.bindingdb.org/jsp/dbsearch/PrimarySearch_ki.jsp?energyterm=kJ/mole&tag=pol&polymerid=4676&target=DNA+repair+protein+RAD51+homolog+1&column=ki&startPg=0&Increment=50&submit=Search

> <Link to Ligand-Target Pair in BindingDB>
http://www.bindingdb.org/jsp/dbsearch/PrimarySearch_ki.jsp?energyterm=kJ/mole&tag=r21&monomerid=48804&enzyme=DNA+repair+protein+RAD51+homolog+1&column=ki&startPg=0&Increment=50&submit=Search

> <Ligand HET ID in PDB>


> <PDB ID(s) for Ligand-Target Complex>


> <PubChem CID of Ligand>
5738263

> <PubChem SID of Ligand>
252629091

> <ChEBI ID of Ligand>


> <ChEMBL ID of Ligand>


> <DrugBank ID of Ligand>


> <IUPHAR_GRAC ID of Ligand>


> <KEGG ID of Ligand>


> <ZINC ID of Ligand>
ZINC04537641

> <Number of Protein Chains in Target (bigger than 1 implies a multichain complex)>
1

> <BindingDB Target Chain Sequence>
MAMQMQLEANADTSVEEESFGPQPISRLEQCGINANDVKKLEEAGFHTVEAVAYAPKKELINIKGISEAKADKILAEAAKLVPMGFTTATEFHQRRSEIIQITTGSKELDKLLQGGIETGSITEMFGEFRTGKTQICHTLAVTCQLPIDRGGGEGKAMYIDTEGTFRPERLLAVAERYGLSGSDVLDNVAYARAFNTDHQTQLLYQASAMMVESRYALLIVDSATALYRTDYSGRGELSARQMHLARFLRMLLRLADEFGVAVVITNQVVAQVDGAAMFAADPKKPIGGNIIAHASTTRLYLRKGRGETRICKIYDSPCLPEAEAMFAINADGVGDAKD

> <PDB ID(s) of Target Chain>
1N0W,5JZC,5NP7,5NWL,8BQ2,8BR2,8BSC

> <UniProt (SwissProt) Recommended Name of Target Chain>
DNA repair protein RAD51 homolog 1

> <UniProt (SwissProt) Entry Name of Target Chain>
RAD51_HUMAN

> <UniProt (SwissProt) Primary ID of Target Chain>
Q06609

> <UniProt (SwissProt) Secondary ID(s) of Target Chain>
B0FXP0 B2R8T6 Q6FHX9 Q6ZNA8 Q9BV60

> <UniProt (SwissProt) Alternative ID(s) of Target Chain>


> <UniProt (TrEMBL) Submitted Name of Target Chain>


> <UniProt (TrEMBL) Entry Name of Target Chain>


> <UniProt (TrEMBL) Primary ID of Target Chain>


> <UniProt (TrEMBL) Secondary ID(s) of Target Chain>


> <UniProt (TrEMBL) Alternative ID(s) of Target Chain>


$$$$
1450043
  Mrv0541 11251416042D          

 27 29  0  0  0  0            999 V2000
    3.0790   -2.4751    0.0000 O   0  0  0  0  0  0  0  0  0  0  0  0
    2.3645    3.7126    0.0000 O   0  0  0  0  0  0  0  0  0  0  0  0
    3.7935    0.4125    0.0000 O   0  0  0  0  0  0  0  0  0  0  0  0
    4.5080   -2.4751    0.0000 N   0  0  0  0  0  0  0  0  0  0  0  0
    3.0790   -0.8250    0.0000 N   0  0  0  0  0  0  0  0  0  0  0  0
    2.3645    0.4125    0.0000 N   0  0  0  0  0  0  0  0  0  0  0  0
    4.5080   -3.3001    0.0000 C   0  0  0  0  0  0  0  0  0  0  0  0
    5.2224   -3.7126    0.0000 C   0  0  0  0  0  0  0  0  0  0  0  0
    3.7935   -2.0625    0.0000 C   0  0  0  0  0  0  0  0  0  0  0  0
    3.7935   -1.2375    0.0000 C   0  0  0  0  0  0  0  0  0  0  0  0
    5.2224   -2.0625    0.0000 C   0  0  0  0  0  0  0  0  0  0  0  0
    4.5080   -0.8250    0.0000 C   0  0  0  0  0  0  0  0  0  0  0  0
    5.2224   -1.2375    0.0000 C   0  0  0  0  0  0  0  0  0  0  0  0
    5.2224   -4.5376    0.0000 C   0  0  0  0  0  0  0  0  0  0  0  0
    5.9370   -3.3001    0.0000 C   0  0  0  0  0  0  0  0  0  0  0  0
    5.9370   -4.9501    0.0000 C   0  0  0  0  0  0  0  0  0  0  0  0
    6.6515   -3.7126    0.0000 C   0  0  0  0  0  0  0  0  0  0  0  0
    2.3645    1.2375    0.0000 C   0  0  0  0  0  0  0  0  0  0  0  0
    3.0790    0.0000    0.0000 C   0  0  0  0  0  0  0  0  0  0  0  0
    6.6515   -4.5376    0.0000 C   0  0  0  0  0  0  0  0  0  0  0  0
    3.0790    1.6500    0.0000 C   0  0  0  0  0  0  0  0  0  0  0  0
    1.6500    1.6500    0.0000 C   0  0  0  0  0  0  0  0  0  0  0  0
    2.3645    2.8876    0.0000 C   0  0  0  0  0  0  0  0  0  0  0  0
    3.0790    2.4751    0.0000 C   0  0  0  0  0  0  0  0  0  0  0  0
    1.6500    2.4751    0.0000 C   0  0  0  0  0  0  0  0  0  0  0  0
    1.6500    4.1251    0.0000 C   0  0  0  0  0  0  0  0  0  0  0  0
    1.6500    4.9501    0.0000 C   0  0  0  0  0  0  0  0  0  0  0  0
  1  9  2  0  0  0  0
  2 23  1  0  0  0  0
  2 26  1  0  0  0  0
  3 19  2  0  0  0  0
  4  7  1  0  0  0  0
  4  9  1  0  0  0  0
  4 11  1  0  0  0  0
  5 10  1  0  0  0  0
  5 19  1  0  0  0  0
  6 18  1  0  0  0  0
  6 19  1  0  0  0  0
  7  8  1  0  0  0  0
  8 14  2  0  0  0  0
  8 15  1  0  0  0  0
  9 10  1  0  0  0  0
 10 12  2  0  0  0  0
 11 13  2  0  0  0  0
 12 13  1  0  0  0  0
 14 16  1  0  0  0  0
 15 17  2  0  0  0  0
 16 20  2  0  0  0  0
 17 20  1  0  0  0  0
 18 21  2  0  0  0  0
 18 22  1  0  0  0  0
 21 24  1  0  0  0  0
 22 25  2  0  0  0  0
 23 24  2  0  0  0  0
 23 25  1  0  0  0  0
 26 27  1  0  0  0  0
M  END
> <From>
www.bindingDB.org

> <BindingDB Reactant_set_id>
95218

> <Ligand InChI>
InChI=1S/C21H21N3O3/c1-2-27-18-12-10-17(11-13-18)22-21(26)23-19-9-6-14-24(20(19)25)15-16-7-4-3-5-8-16/h3-14H,2,15H2,1H3,(H2,22,23,26)

> <Ligand InChI Key>
NJMHXTWXOLDESE-UHFFFAOYSA-N

> <BindingDB MonomerID>
51333

> <BindingDB Ligand Name>
1-(1-benzyl-2-keto-3-pyridyl)-3-p-phenetyl-urea::1-(1-benzyl-2-oxopyridin-3-yl)-3-(4-ethoxyphenyl)urea::1-(4-ethoxyphenyl)-3-[2-oxidanylidene-1-(phenylmethyl)pyridin-3-yl]urea::1-(4-ethoxyphenyl)-3-[2-oxo-1-(phenylmethyl)-3-pyridinyl]urea::MLS000718410::SMR000290678::cid_1450043

> <Target Name>
DNA repair protein RAD51 homolog 1

> <Target Source Organism According to Curator or DataSource>
Homo sapiens

> <Ki (nM)>


> <IC50 (nM)>
 53000

> <Kd (nM)>


> <EC50 (nM)>


> <kon (M-1-s-1)>


> <koff (s-1)>


> <pH>


> <Temp C>


> <Curation/DataSource>
PubChem

> <Article DOI>


> <BindingDB Entry DOI>
10.7270/Q2QN6558

> <PMID>


> <PubChem AID>
aid1437

> <Patent Number>


> <Authors>
PubChem, PC

> <Date of publication>
11/25/2008

> <Date in BindingDB>
5/31/2011

> <Institution>
PCMD

> <Link to Ligand in BindingDB>
http://www.bindingdb.org/bind/chemsearch/marvin/MolStructure.jsp?monomerid=51333

> <Link to Ligand-Target Pair in BindingDB>
http://www.bindingdb.org/jsp/dbsearch/PrimarySearch_ki.jsp?energyterm=kJ/mole&tag=pol&polymerid=4676&target=DNA+repair+protein+RAD51+homolog+1&column=ki&startPg=0&Increment=50&submit=Search

> <Link to Ligand-Target Pair in BindingDB>
http://www.bindingdb.org/jsp/dbsearch/PrimarySearch_ki.jsp?energyterm=kJ/mole&tag=r21&monomerid=51333&enzyme=DNA+repair+protein+RAD51+homolog+1&column=ki&startPg=0&Increment=50&submit=Search

> <Ligand HET ID in PDB>


> <PDB ID(s) for Ligand-Target Complex>


> <PubChem CID of Ligand>
1450043

> <PubChem SID of Ligand>
252631556

> <ChEBI ID of Ligand>


> <ChEMBL ID of Ligand>


> <DrugBank ID of Ligand>


> <IUPHAR_GRAC ID of Ligand>


> <KEGG ID of Ligand>


> <ZINC ID of Ligand>
ZINC04197236

> <Number of Protein Chains in Target (bigger than 1 implies a multichain complex)>
1

> <BindingDB Target Chain Sequence>
MAMQMQLEANADTSVEEESFGPQPISRLEQCGINANDVKKLEEAGFHTVEAVAYAPKKELINIKGISEAKADKILAEAAKLVPMGFTTATEFHQRRSEIIQITTGSKELDKLLQGGIETGSITEMFGEFRTGKTQICHTLAVTCQLPIDRGGGEGKAMYIDTEGTFRPERLLAVAERYGLSGSDVLDNVAYARAFNTDHQTQLLYQASAMMVESRYALLIVDSATALYRTDYSGRGELSARQMHLARFLRMLLRLADEFGVAVVITNQVVAQVDGAAMFAADPKKPIGGNIIAHASTTRLYLRKGRGETRICKIYDSPCLPEAEAMFAINADGVGDAKD

> <PDB ID(s) of Target Chain>
1N0W,5JZC,5NP7,5NWL,8BQ2,8BR2,8BSC

> <UniProt (SwissProt) Recommended Name of Target Chain>
DNA repair protein RAD51 homolog 1

> <UniProt (SwissProt) Entry Name of Target Chain>
RAD51_HUMAN

> <UniProt (SwissProt) Primary ID of Target Chain>
Q06609

> <UniProt (SwissProt) Secondary ID(s) of Target Chain>
B0FXP0 B2R8T6 Q6FHX9 Q6ZNA8 Q9BV60

> <UniProt (SwissProt) Alternative ID(s) of Target Chain>


> <UniProt (TrEMBL) Submitted Name of Target Chain>


> <UniProt (TrEMBL) Entry Name of Target Chain>


> <UniProt (TrEMBL) Primary ID of Target Chain>


> <UniProt (TrEMBL) Secondary ID(s) of Target Chain>


> <UniProt (TrEMBL) Alternative ID(s) of Target Chain>


$$$$
2944249
  Mrv0541 11251416042D          

 20 20  0  0  0  0            999 V2000
    4.7299    2.9866    0.0000 O   0  0  0  0  0  0  0  0  0  0  0  0
    6.8734    4.2241    0.0000 O   0  5  0  0  0  0  0  0  0  0  0  0
    5.4444    4.2241    0.0000 O   0  0  0  0  0  0  0  0  0  0  0  0
    2.5864    2.5741    0.0000 N   0  0  0  0  0  0  0  0  0  0  0  0
    6.1588    3.8116    0.0000 N   0  3  0  0  0  0  0  0  0  0  0  0
    3.3009    2.9866    0.0000 C   0  0  0  0  0  0  0  0  0  0  0  0
    4.0154    2.5741    0.0000 C   0  0  0  0  0  0  0  0  0  0  0  0
    1.8720    2.9866    0.0000 C   0  0  0  0  0  0  0  0  0  0  0  0
    2.5864    1.7490    0.0000 C   0  0  0  0  0  0  0  0  0  0  0  0
    5.4444    2.5741    0.0000 C   0  0  0  0  0  0  0  0  0  0  0  0
    1.8720    1.3365    0.0000 C   0  0  0  0  0  0  0  0  0  0  0  0
    1.1575    2.5741    0.0000 C   0  0  0  0  0  0  0  0  0  0  0  0
    6.1588    2.9866    0.0000 C   0  0  0  0  0  0  0  0  0  0  0  0
    5.4444    1.7490    0.0000 C   0  0  0  0  0  0  0  0  0  0  0  0
    6.1588    1.3365    0.0000 C   0  0  0  0  0  0  0  0  0  0  0  0
    6.8734    2.5741    0.0000 C   0  0  0  0  0  0  0  0  0  0  0  0
    6.8734    1.7490    0.0000 C   0  0  0  0  0  0  0  0  0  0  0  0
    6.1588    0.5115    0.0000 C   0  0  0  0  0  0  0  0  0  0  0  0
    1.8720    0.5115    0.0000 C   0  0  0  0  0  0  0  0  0  0  0  0
    0.4430    2.9866    0.0000 C   0  0  0  0  0  0  0  0  0  0  0  0
  1  7  1  0  0  0  0
  1 10  1  0  0  0  0
  2  5  1  0  0  0  0
  3  5  2  0  0  0  0
  4  6  1  0  0  0  0
  4  8  1  0  0  0  0
  4  9  1  0  0  0  0
  5 13  1  0  0  0  0
  6  7  1  0  0  0  0
  8 12  1  0  0  0  0
  9 11  1  0  0  0  0
 10 13  2  0  0  0  0
 10 14  1  0  0  0  0
 11 19  2  0  0  0  0
 12 20  2  0  0  0  0
 13 16  1  0  0  0  0
 14 15  2  0  0  0  0
 15 17  1  0  0  0  0
 15 18  1  0  0  0  0
 16 17  2  0  0  0  0
M  CHG  2   2  -1   5   1
M  END
> <From>
www.bindingDB.org

> <BindingDB Reactant_set_id>
95219

> <Ligand InChI>
InChI=1S/C15H20N2O3/c1-4-8-16(9-5-2)10-11-20-15-12-13(3)6-7-14(15)17(18)19/h4-7,12H,1-2,8-11H2,3H3

> <Ligand InChI Key>
QANIOWQGGNSRGH-UHFFFAOYSA-N

> <BindingDB MonomerID>
51334

> <BindingDB Ligand Name>
MLS000662347::N-[2-(5-methyl-2-nitrophenoxy)ethyl]-N-prop-2-enyl-2-propen-1-amine;oxalic acid::N-[2-(5-methyl-2-nitrophenoxy)ethyl]-N-prop-2-enylprop-2-en-1-amine;oxalic acid::N-allyl-N-[2-(5-methyl-2-nitrophenoxy)ethyl]-2-propen-1-amine oxalate::SMR000292876::cid_2944249::diallyl-[2-(5-methyl-2-nitro-phenoxy)ethyl]amine;oxalic acid::ethanedioic acid;N-[2-(5-methyl-2-nitro-phenoxy)ethyl]-N-prop-2-enyl-prop-2-en-1-amine

> <Target Name>
DNA repair protein RAD51 homolog 1

> <Target Source Organism According to Curator or DataSource>
Homo sapiens

> <Ki (nM)>


> <IC50 (nM)>
 53000

> <Kd (nM)>


> <EC50 (nM)>


> <kon (M-1-s-1)>


> <koff (s-1)>


> <pH>


> <Temp C>


> <Curation/DataSource>
PubChem

> <Article DOI>


> <BindingDB Entry DOI>
10.7270/Q2QN6558

> <PMID>


> <PubChem AID>
aid1437

> <Patent Number>


> <Authors>
PubChem, PC

> <Date of publication>
11/25/2008

> <Date in BindingDB>
5/31/2011

> <Institution>
PCMD

> <Link to Ligand in BindingDB>
http://www.bindingdb.org/bind/chemsearch/marvin/MolStructure.jsp?monomerid=51334

> <Link to Ligand-Target Pair in BindingDB>
http://www.bindingdb.org/jsp/dbsearch/PrimarySearch_ki.jsp?energyterm=kJ/mole&tag=pol&polymerid=4676&target=DNA+repair+protein+RAD51+homolog+1&column=ki&startPg=0&Increment=50&submit=Search

> <Link to Ligand-Target Pair in BindingDB>
http://www.bindingdb.org/jsp/dbsearch/PrimarySearch_ki.jsp?energyterm=kJ/mole&tag=r21&monomerid=51334&enzyme=DNA+repair+protein+RAD51+homolog+1&column=ki&startPg=0&Increment=50&submit=Search

> <Ligand HET ID in PDB>


> <PDB ID(s) for Ligand-Target Complex>


> <PubChem CID of Ligand>
894890

> <PubChem SID of Ligand>
252631557

> <ChEBI ID of Ligand>


> <ChEMBL ID of Ligand>


> <DrugBank ID of Ligand>


> <IUPHAR_GRAC ID of Ligand>


> <KEGG ID of Ligand>


> <ZINC ID of Ligand>
ZINC04196965

> <Number of Protein Chains in Target (bigger than 1 implies a multichain complex)>
1

> <BindingDB Target Chain Sequence>
MAMQMQLEANADTSVEEESFGPQPISRLEQCGINANDVKKLEEAGFHTVEAVAYAPKKELINIKGISEAKADKILAEAAKLVPMGFTTATEFHQRRSEIIQITTGSKELDKLLQGGIETGSITEMFGEFRTGKTQICHTLAVTCQLPIDRGGGEGKAMYIDTEGTFRPERLLAVAERYGLSGSDVLDNVAYARAFNTDHQTQLLYQASAMMVESRYALLIVDSATALYRTDYSGRGELSARQMHLARFLRMLLRLADEFGVAVVITNQVVAQVDGAAMFAADPKKPIGGNIIAHASTTRLYLRKGRGETRICKIYDSPCLPEAEAMFAINADGVGDAKD

> <PDB ID(s) of Target Chain>
1N0W,5JZC,5NP7,5NWL,8BQ2,8BR2,8BSC

> <UniProt (SwissProt) Recommended Name of Target Chain>
DNA repair protein RAD51 homolog 1

> <UniProt (SwissProt) Entry Name of Target Chain>
RAD51_HUMAN

> <UniProt (SwissProt) Primary ID of Target Chain>
Q06609

> <UniProt (SwissProt) Secondary ID(s) of Target Chain>
B0FXP0 B2R8T6 Q6FHX9 Q6ZNA8 Q9BV60

> <UniProt (SwissProt) Alternative ID(s) of Target Chain>


> <UniProt (TrEMBL) Submitted Name of Target Chain>


> <UniProt (TrEMBL) Entry Name of Target Chain>


> <UniProt (TrEMBL) Primary ID of Target Chain>


> <UniProt (TrEMBL) Secondary ID(s) of Target Chain>


> <UniProt (TrEMBL) Alternative ID(s) of Target Chain>


$$$$
1314026
  Mrv0541 11251416042D          

 24 25  0  0  0  0            999 V2000
    1.6500   -0.4125    0.0000 Br  0  0  0  0  0  0  0  0  0  0  0  0
    1.6500   -2.0625    0.0000 O   0  0  0  0  0  0  0  0  0  0  0  0
    4.5080   -2.0625    0.0000 O   0  0  0  0  0  0  0  0  0  0  0  0
    3.0790   -2.8876    0.0000 O   0  0  0  0  0  0  0  0  0  0  0  0
    2.3645    0.8250    0.0000 O   0  0  0  0  0  0  0  0  0  0  0  0
    3.7935    0.8250    0.0000 N   0  0  0  0  0  0  0  0  0  0  0  0
    4.5080    2.0625    0.0000 C   0  0  0  0  0  0  0  0  0  0  0  0
    3.7935    1.6500    0.0000 C   0  0  0  0  0  0  0  0  0  0  0  0
    4.5080    2.8876    0.0000 C   0  0  0  0  0  0  0  0  0  0  0  0
    3.0790   -0.4125    0.0000 C   0  0  0  0  0  0  0  0  0  0  0  0
    3.0790    0.4125    0.0000 C   0  0  0  0  0  0  0  0  0  0  0  0
    3.0790    2.0625    0.0000 C   0  0  0  0  0  0  0  0  0  0  0  0
    2.3645   -0.8250    0.0000 C   0  0  0  0  0  0  0  0  0  0  0  0
    3.7935   -0.8250    0.0000 C   0  0  0  0  0  0  0  0  0  0  0  0
    3.7935    3.3001    0.0000 C   0  0  0  0  0  0  0  0  0  0  0  0
    2.3645   -1.6500    0.0000 C   0  0  0  0  0  0  0  0  0  0  0  0
    3.7935   -1.6500    0.0000 C   0  0  0  0  0  0  0  0  0  0  0  0
    3.0790   -2.0625    0.0000 C   0  0  0  0  0  0  0  0  0  0  0  0
    5.2224    1.6500    0.0000 C   0  0  0  0  0  0  0  0  0  0  0  0
    3.0790    2.8876    0.0000 C   0  0  0  0  0  0  0  0  0  0  0  0
    5.2224    3.3001    0.0000 C   0  0  0  0  0  0  0  0  0  0  0  0
    1.6500   -2.8876    0.0000 C   0  0  0  0  0  0  0  0  0  0  0  0
    5.2224   -1.6500    0.0000 C   0  0  0  0  0  0  0  0  0  0  0  0
    3.7935   -3.3001    0.0000 C   0  0  0  0  0  0  0  0  0  0  0  0
  1 13  1  0  0  0  0
  2 16  1  0  0  0  0
  2 22  1  0  0  0  0
  3 17  1  0  0  0  0
  3 23  1  0  0  0  0
  4 18  1  0  0  0  0
  4 24  1  0  0  0  0
  5 11  2  0  0  0  0
  6  8  1  0  0  0  0
  6 11  1  0  0  0  0
  7  8  2  0  0  0  0
  7  9  1  0  0  0  0
  7 19  1  0  0  0  0
  8 12  1  0  0  0  0
  9 15  2  0  0  0  0
  9 21  1  0  0  0  0
 10 11  1  0  0  0  0
 10 13  2  0  0  0  0
 10 14  1  0  0  0  0
 12 20  2  0  0  0  0
 13 16  1  0  0  0  0
 14 17  2  0  0  0  0
 15 20  1  0  0  0  0
 16 18  2  0  0  0  0
 17 18  1  0  0  0  0
M  END
> <From>
www.bindingDB.org

> <BindingDB Reactant_set_id>
95220

> <Ligand InChI>
InChI=1S/C18H20BrNO4/c1-10-7-6-8-13(11(10)2)20-18(21)12-9-14(22-3)16(23-4)17(24-5)15(12)19/h6-9H,1-5H3,(H,20,21)

> <Ligand InChI Key>
PINPTZKYYUFVID-UHFFFAOYSA-N

> <BindingDB MonomerID>
51335

> <BindingDB Ligand Name>
2-bromanyl-N-(2,3-dimethylphenyl)-3,4,5-trimethoxy-benzamide::2-bromo-N-(2,3-dimethylphenyl)-3,4,5-trimethoxy-benzamide::2-bromo-N-(2,3-dimethylphenyl)-3,4,5-trimethoxybenzamide::MLS000662381::SMR000292915::cid_1314026

> <Target Name>
DNA repair protein RAD51 homolog 1

> <Target Source Organism According to Curator or DataSource>
Homo sapiens

> <Ki (nM)>


> <IC50 (nM)>
 53000

> <Kd (nM)>


> <EC50 (nM)>


> <kon (M-1-s-1)>


> <koff (s-1)>


> <pH>


> <Temp C>


> <Curation/DataSource>
PubChem

> <Article DOI>


> <BindingDB Entry DOI>
10.7270/Q2QN6558

> <PMID>


> <PubChem AID>
aid1437

> <Patent Number>


> <Authors>
PubChem, PC

> <Date of publication>
11/25/2008

> <Date in BindingDB>
5/31/2011

> <Institution>
PCMD

> <Link to Ligand in BindingDB>
http://www.bindingdb.org/bind/chemsearch/marvin/MolStructure.jsp?monomerid=51335

> <Link to Ligand-Target Pair in BindingDB>
http://www.bindingdb.org/jsp/dbsearch/PrimarySearch_ki.jsp?energyterm=kJ/mole&tag=pol&polymerid=4676&target=DNA+repair+protein+RAD51+homolog+1&column=ki&startPg=0&Increment=50&submit=Search

> <Link to Ligand-Target Pair in BindingDB>
http://www.bindingdb.org/jsp/dbsearch/PrimarySearch_ki.jsp?energyterm=kJ/mole&tag=r21&monomerid=51335&enzyme=DNA+repair+protein+RAD51+homolog+1&column=ki&startPg=0&Increment=50&submit=Search

> <Ligand HET ID in PDB>


> <PDB ID(s) for Ligand-Target Complex>


> <PubChem CID of Ligand>
1314026

> <PubChem SID of Ligand>
252631558

> <ChEBI ID of Ligand>


> <ChEMBL ID of Ligand>


> <DrugBank ID of Ligand>


> <IUPHAR_GRAC ID of Ligand>


> <KEGG ID of Ligand>


> <ZINC ID of Ligand>
ZINC00993440

> <Number of Protein Chains in Target (bigger than 1 implies a multichain complex)>
1

> <BindingDB Target Chain Sequence>
MAMQMQLEANADTSVEEESFGPQPISRLEQCGINANDVKKLEEAGFHTVEAVAYAPKKELINIKGISEAKADKILAEAAKLVPMGFTTATEFHQRRSEIIQITTGSKELDKLLQGGIETGSITEMFGEFRTGKTQICHTLAVTCQLPIDRGGGEGKAMYIDTEGTFRPERLLAVAERYGLSGSDVLDNVAYARAFNTDHQTQLLYQASAMMVESRYALLIVDSATALYRTDYSGRGELSARQMHLARFLRMLLRLADEFGVAVVITNQVVAQVDGAAMFAADPKKPIGGNIIAHASTTRLYLRKGRGETRICKIYDSPCLPEAEAMFAINADGVGDAKD

> <PDB ID(s) of Target Chain>
1N0W,5JZC,5NP7,5NWL,8BQ2,8BR2,8BSC

> <UniProt (SwissProt) Recommended Name of Target Chain>
DNA repair protein RAD51 homolog 1

> <UniProt (SwissProt) Entry Name of Target Chain>
RAD51_HUMAN

> <UniProt (SwissProt) Primary ID of Target Chain>
Q06609

> <UniProt (SwissProt) Secondary ID(s) of Target Chain>
B0FXP0 B2R8T6 Q6FHX9 Q6ZNA8 Q9BV60

> <UniProt (SwissProt) Alternative ID(s) of Target Chain>


> <UniProt (TrEMBL) Submitted Name of Target Chain>


> <UniProt (TrEMBL) Entry Name of Target Chain>


> <UniProt (TrEMBL) Primary ID of Target Chain>


> <UniProt (TrEMBL) Secondary ID(s) of Target Chain>


> <UniProt (TrEMBL) Alternative ID(s) of Target Chain>


$$$$
1313981
  Mrv0541 11251416042D          

 25 27  0  0  0  0            999 V2000
    1.6500   -1.0313    0.0000 Cl  0  0  0  0  0  0  0  0  0  0  0  0
    3.0790   -0.2063    0.0000 S   0  0  0  0  0  0  0  0  0  0  0  0
    3.0790    3.9188    0.0000 O   0  0  0  0  0  0  0  0  0  0  0  0
    2.3645    1.0313    0.0000 O   0  0  0  0  0  0  0  0  0  0  0  0
    2.3645   -3.9188    0.0000 O   0  5  0  0  0  0  0  0  0  0  0  0
    3.7935   -3.9188    0.0000 O   0  0  0  0  0  0  0  0  0  0  0  0
    3.0790    2.2688    0.0000 N   0  0  0  0  0  0  0  0  0  0  0  0
    3.0790   -3.5063    0.0000 N   0  3  0  0  0  0  0  0  0  0  0  0
    2.3645    2.6813    0.0000 C   0  0  0  0  0  0  0  0  0  0  0  0
    3.7935    2.6813    0.0000 C   0  0  0  0  0  0  0  0  0  0  0  0
    2.3645    3.5063    0.0000 C   0  0  0  0  0  0  0  0  0  0  0  0
    3.7935    3.5063    0.0000 C   0  0  0  0  0  0  0  0  0  0  0  0
    3.0790    1.4438    0.0000 C   0  0  0  0  0  0  0  0  0  0  0  0
    3.7935    1.0313    0.0000 C   0  0  0  0  0  0  0  0  0  0  0  0
    3.7935    0.2063    0.0000 C   0  0  0  0  0  0  0  0  0  0  0  0
    4.5080    1.4438    0.0000 C   0  0  0  0  0  0  0  0  0  0  0  0
    4.5080   -0.2063    0.0000 C   0  0  0  0  0  0  0  0  0  0  0  0
    5.2224    1.0313    0.0000 C   0  0  0  0  0  0  0  0  0  0  0  0
    5.2224    0.2063    0.0000 C   0  0  0  0  0  0  0  0  0  0  0  0
    3.0790   -1.0313    0.0000 C   0  0  0  0  0  0  0  0  0  0  0  0
    2.3645   -1.4438    0.0000 C   0  0  0  0  0  0  0  0  0  0  0  0
    3.7935   -1.4438    0.0000 C   0  0  0  0  0  0  0  0  0  0  0  0
    3.0790   -2.6813    0.0000 C   0  0  0  0  0  0  0  0  0  0  0  0
    2.3645   -2.2688    0.0000 C   0  0  0  0  0  0  0  0  0  0  0  0
    3.7935   -2.2688    0.0000 C   0  0  0  0  0  0  0  0  0  0  0  0
  1 21  1  0  0  0  0
  2 15  1  0  0  0  0
  2 20  1  0  0  0  0
  3 11  1  0  0  0  0
  3 12  1  0  0  0  0
  4 13  2  0  0  0  0
  5  8  1  0  0  0  0
  6  8  2  0  0  0  0
  7  9  1  0  0  0  0
  7 10  1  0  0  0  0
  7 13  1  0  0  0  0
  8 23  1  0  0  0  0
  9 11  1  0  0  0  0
 10 12  1  0  0  0  0
 13 14  1  0  0  0  0
 14 15  2  0  0  0  0
 14 16  1  0  0  0  0
 15 17  1  0  0  0  0
 16 18  2  0  0  0  0
 17 19  2  0  0  0  0
 18 19  1  0  0  0  0
 20 21  2  0  0  0  0
 20 22  1  0  0  0  0
 21 24  1  0  0  0  0
 22 25  2  0  0  0  0
 23 24  2  0  0  0  0
 23 25  1  0  0  0  0
M  CHG  2   5  -1   8   1
M  END
> <From>
www.bindingDB.org

> <BindingDB Reactant_set_id>
95221

> <Ligand InChI>
InChI=1S/C17H15ClN2O4S/c18-14-11-12(20(22)23)5-6-16(14)25-15-4-2-1-3-13(15)17(21)19-7-9-24-10-8-19/h1-6,11H,7-10H2

> <Ligand InChI Key>
HXYXDUVHHBKBPS-UHFFFAOYSA-N

> <BindingDB MonomerID>
51336

> <BindingDB Ligand Name>
4-{2-[(2-chloro-4-nitrophenyl)thio]benzoyl}morpholine::MLS000662370::SMR000292908::[2-(2-chloranyl-4-nitro-phenyl)sulfanylphenyl]-morpholin-4-yl-methanone::[2-(2-chloro-4-nitrophenyl)sulfanylphenyl]-morpholin-4-ylmethanone::[2-[(2-chloro-4-nitro-phenyl)thio]phenyl]-morpholino-methanone::[2-[(2-chloro-4-nitrophenyl)thio]phenyl]-(4-morpholinyl)methanone::cid_1313981

> <Target Name>
DNA repair protein RAD51 homolog 1

> <Target Source Organism According to Curator or DataSource>
Homo sapiens

> <Ki (nM)>


> <IC50 (nM)>
 53000

> <Kd (nM)>


> <EC50 (nM)>


> <kon (M-1-s-1)>


> <koff (s-1)>


> <pH>


> <Temp C>


> <Curation/DataSource>
PubChem

> <Article DOI>


> <BindingDB Entry DOI>
10.7270/Q2QN6558

> <PMID>


> <PubChem AID>
aid1437

> <Patent Number>


> <Authors>
PubChem, PC

> <Date of publication>
11/25/2008

> <Date in BindingDB>
5/31/2011

> <Institution>
PCMD

> <Link to Ligand in BindingDB>
http://www.bindingdb.org/bind/chemsearch/marvin/MolStructure.jsp?monomerid=51336

> <Link to Ligand-Target Pair in BindingDB>
http://www.bindingdb.org/jsp/dbsearch/PrimarySearch_ki.jsp?energyterm=kJ/mole&tag=pol&polymerid=4676&target=DNA+repair+protein+RAD51+homolog+1&column=ki&startPg=0&Increment=50&submit=Search

> <Link to Ligand-Target Pair in BindingDB>
http://www.bindingdb.org/jsp/dbsearch/PrimarySearch_ki.jsp?energyterm=kJ/mole&tag=r21&monomerid=51336&enzyme=DNA+repair+protein+RAD51+homolog+1&column=ki&startPg=0&Increment=50&submit=Search

> <Ligand HET ID in PDB>


> <PDB ID(s) for Ligand-Target Complex>


> <PubChem CID of Ligand>
1313981

> <PubChem SID of Ligand>
252631559

> <ChEBI ID of Ligand>


> <ChEMBL ID of Ligand>


> <DrugBank ID of Ligand>


> <IUPHAR_GRAC ID of Ligand>


> <KEGG ID of Ligand>


> <ZINC ID of Ligand>
ZINC00617595

> <Number of Protein Chains in Target (bigger than 1 implies a multichain complex)>
1

> <BindingDB Target Chain Sequence>
MAMQMQLEANADTSVEEESFGPQPISRLEQCGINANDVKKLEEAGFHTVEAVAYAPKKELINIKGISEAKADKILAEAAKLVPMGFTTATEFHQRRSEIIQITTGSKELDKLLQGGIETGSITEMFGEFRTGKTQICHTLAVTCQLPIDRGGGEGKAMYIDTEGTFRPERLLAVAERYGLSGSDVLDNVAYARAFNTDHQTQLLYQASAMMVESRYALLIVDSATALYRTDYSGRGELSARQMHLARFLRMLLRLADEFGVAVVITNQVVAQVDGAAMFAADPKKPIGGNIIAHASTTRLYLRKGRGETRICKIYDSPCLPEAEAMFAINADGVGDAKD

> <PDB ID(s) of Target Chain>
1N0W,5JZC,5NP7,5NWL,8BQ2,8BR2,8BSC

> <UniProt (SwissProt) Recommended Name of Target Chain>
DNA repair protein RAD51 homolog 1

> <UniProt (SwissProt) Entry Name of Target Chain>
RAD51_HUMAN

> <UniProt (SwissProt) Primary ID of Target Chain>
Q06609

> <UniProt (SwissProt) Secondary ID(s) of Target Chain>
B0FXP0 B2R8T6 Q6FHX9 Q6ZNA8 Q9BV60

> <UniProt (SwissProt) Alternative ID(s) of Target Chain>


> <UniProt (TrEMBL) Submitted Name of Target Chain>


> <UniProt (TrEMBL) Entry Name of Target Chain>


> <UniProt (TrEMBL) Primary ID of Target Chain>


> <UniProt (TrEMBL) Secondary ID(s) of Target Chain>


> <UniProt (TrEMBL) Alternative ID(s) of Target Chain>


$$$$
1316328
  Mrv0541 11251416042D          

 27 30  0  0  0  0            999 V2000
    1.6500   -0.6188    0.0000 Br  0  0  0  0  0  0  0  0  0  0  0  0
    7.3659   -1.4438    0.0000 O   0  0  0  0  0  0  0  0  0  0  0  0
    4.5080    1.8563    0.0000 O   0  0  0  0  0  0  0  0  0  0  0  0
   11.0045   -0.3674    0.0000 O   0  0  0  0  0  0  0  0  0  0  0  0
   11.0045   -1.6952    0.0000 O   0  0  0  0  0  0  0  0  0  0  0  0
    5.2224    0.6188    0.0000 N   0  0  0  0  0  0  0  0  0  0  0  0
    8.0804   -0.2063    0.0000 N   0  0  0  0  0  0  0  0  0  0  0  0
    6.6515   -0.2063    0.0000 C   0  0  0  0  0  0  0  0  0  0  0  0
    6.6515    0.6188    0.0000 C   0  0  0  0  0  0  0  0  0  0  0  0
    5.9370   -0.6188    0.0000 C   0  0  0  0  0  0  0  0  0  0  0  0
    5.9370    1.0313    0.0000 C   0  0  0  0  0  0  0  0  0  0  0  0
    5.2224   -0.2063    0.0000 C   0  0  0  0  0  0  0  0  0  0  0  0
    7.3659   -0.6188    0.0000 C   0  0  0  0  0  0  0  0  0  0  0  0
    4.5080    1.0313    0.0000 C   0  0  0  0  0  0  0  0  0  0  0  0
    3.7935    0.6188    0.0000 C   0  0  0  0  0  0  0  0  0  0  0  0
    8.7949   -0.6188    0.0000 C   0  0  0  0  0  0  0  0  0  0  0  0
    9.5094   -0.2063    0.0000 C   0  0  0  0  0  0  0  0  0  0  0  0
    3.0790    1.0313    0.0000 C   0  0  0  0  0  0  0  0  0  0  0  0
    3.7935   -0.2063    0.0000 C   0  0  0  0  0  0  0  0  0  0  0  0
    8.7949   -1.4438    0.0000 C   0  0  0  0  0  0  0  0  0  0  0  0
   10.2239   -0.6188    0.0000 C   0  0  0  0  0  0  0  0  0  0  0  0
   10.2239   -1.4438    0.0000 C   0  0  0  0  0  0  0  0  0  0  0  0
    9.5094   -1.8563    0.0000 C   0  0  0  0  0  0  0  0  0  0  0  0
    2.3645    0.6188    0.0000 C   0  0  0  0  0  0  0  0  0  0  0  0
    3.0790   -0.6188    0.0000 C   0  0  0  0  0  0  0  0  0  0  0  0
   11.4860   -1.0313    0.0000 C   0  0  0  0  0  0  0  0  0  0  0  0
    2.3645   -0.2063    0.0000 C   0  0  0  0  0  0  0  0  0  0  0  0
  1 27  1  0  0  0  0
  2 13  2  0  0  0  0
  3 14  2  0  0  0  0
  4 21  1  0  0  0  0
  4 26  1  0  0  0  0
  5 22  1  0  0  0  0
  5 26  1  0  0  0  0
  6 11  1  0  0  0  0
  6 12  1  0  0  0  0
  6 14  1  0  0  0  0
  7 13  1  0  0  0  0
  7 16  1  0  0  0  0
  8  9  1  0  0  0  0
  8 10  1  0  0  0  0
  8 13  1  0  0  0  0
  9 11  1  0  0  0  0
 10 12  1  0  0  0  0
 14 15  1  0  0  0  0
 15 18  2  0  0  0  0
 15 19  1  0  0  0  0
 16 17  2  0  0  0  0
 16 20  1  0  0  0  0
 17 21  1  0  0  0  0
 18 24  1  0  0  0  0
 19 25  2  0  0  0  0
 20 23  2  0  0  0  0
 21 22  2  0  0  0  0
 22 23  1  0  0  0  0
 24 27  2  0  0  0  0
 25 27  1  0  0  0  0
M  END
> <From>
www.bindingDB.org

> <BindingDB Reactant_set_id>
95222

> <Ligand InChI>
InChI=1S/C20H19BrN2O4/c21-15-3-1-14(2-4-15)20(25)23-9-7-13(8-10-23)19(24)22-16-5-6-17-18(11-16)27-12-26-17/h1-6,11,13H,7-10,12H2,(H,22,24)

> <Ligand InChI Key>
ZSSNIDDQXDTNTJ-UHFFFAOYSA-N

> <BindingDB MonomerID>
51337

> <BindingDB Ligand Name>
MLS000663513::N-(1,3-benzodioxol-5-yl)-1-(4-bromobenzoyl)isonipecotamide::N-(1,3-benzodioxol-5-yl)-1-(4-bromobenzoyl)piperidine-4-carboxamide::N-(1,3-benzodioxol-5-yl)-1-(4-bromophenyl)carbonyl-piperidine-4-carboxamide::N-(1,3-benzodioxol-5-yl)-1-[(4-bromophenyl)-oxomethyl]-4-piperidinecarboxamide::N-1,3-benzodioxol-5-yl-1-(4-bromobenzoyl)-4-piperidinecarboxamide::SMR000292664::cid_1316328

> <Target Name>
DNA repair protein RAD51 homolog 1

> <Target Source Organism According to Curator or DataSource>
Homo sapiens

> <Ki (nM)>


> <IC50 (nM)>
 53000

> <Kd (nM)>


> <EC50 (nM)>


> <kon (M-1-s-1)>


> <koff (s-1)>


> <pH>


> <Temp C>


> <Curation/DataSource>
PubChem

> <Article DOI>


> <BindingDB Entry DOI>
10.7270/Q2QN6558

> <PMID>


> <PubChem AID>
aid1437

> <Patent Number>


> <Authors>
PubChem, PC

> <Date of publication>
11/25/2008

> <Date in BindingDB>
5/31/2011

> <Institution>
PCMD

> <Link to Ligand in BindingDB>
http://www.bindingdb.org/bind/chemsearch/marvin/MolStructure.jsp?monomerid=51337

> <Link to Ligand-Target Pair in BindingDB>
http://www.bindingdb.org/jsp/dbsearch/PrimarySearch_ki.jsp?energyterm=kJ/mole&tag=pol&polymerid=4676&target=DNA+repair+protein+RAD51+homolog+1&column=ki&startPg=0&Increment=50&submit=Search

> <Link to Ligand-Target Pair in BindingDB>
http://www.bindingdb.org/jsp/dbsearch/PrimarySearch_ki.jsp?energyterm=kJ/mole&tag=r21&monomerid=51337&enzyme=DNA+repair+protein+RAD51+homolog+1&column=ki&startPg=0&Increment=50&submit=Search

> <Ligand HET ID in PDB>


> <PDB ID(s) for Ligand-Target Complex>


> <PubChem CID of Ligand>
1316328

> <PubChem SID of Ligand>
252631560

> <ChEBI ID of Ligand>


> <ChEMBL ID of Ligand>


> <DrugBank ID of Ligand>


> <IUPHAR_GRAC ID of Ligand>


> <KEGG ID of Ligand>


> <ZINC ID of Ligand>
ZINC01130752

> <Number of Protein Chains in Target (bigger than 1 implies a multichain complex)>
1

> <BindingDB Target Chain Sequence>
MAMQMQLEANADTSVEEESFGPQPISRLEQCGINANDVKKLEEAGFHTVEAVAYAPKKELINIKGISEAKADKILAEAAKLVPMGFTTATEFHQRRSEIIQITTGSKELDKLLQGGIETGSITEMFGEFRTGKTQICHTLAVTCQLPIDRGGGEGKAMYIDTEGTFRPERLLAVAERYGLSGSDVLDNVAYARAFNTDHQTQLLYQASAMMVESRYALLIVDSATALYRTDYSGRGELSARQMHLARFLRMLLRLADEFGVAVVITNQVVAQVDGAAMFAADPKKPIGGNIIAHASTTRLYLRKGRGETRICKIYDSPCLPEAEAMFAINADGVGDAKD

> <PDB ID(s) of Target Chain>
1N0W,5JZC,5NP7,5NWL,8BQ2,8BR2,8BSC

> <UniProt (SwissProt) Recommended Name of Target Chain>
DNA repair protein RAD51 homolog 1

> <UniProt (SwissProt) Entry Name of Target Chain>
RAD51_HUMAN

> <UniProt (SwissProt) Primary ID of Target Chain>
Q06609

> <UniProt (SwissProt) Secondary ID(s) of Target Chain>
B0FXP0 B2R8T6 Q6FHX9 Q6ZNA8 Q9BV60

> <UniProt (SwissProt) Alternative ID(s) of Target Chain>


> <UniProt (TrEMBL) Submitted Name of Target Chain>


> <UniProt (TrEMBL) Entry Name of Target Chain>


> <UniProt (TrEMBL) Primary ID of Target Chain>


> <UniProt (TrEMBL) Secondary ID(s) of Target Chain>


> <UniProt (TrEMBL) Alternative ID(s) of Target Chain>


$$$$
4248778
  Mrv0541 11251416042D          

 26 28  0  0  0  0            999 V2000
    4.8014    2.3204    0.0000 S   0  0  0  0  0  0  0  0  0  0  0  0
    2.4750   -2.9166    0.0000 S   0  0  0  0  0  0  0  0  0  0  0  0
    5.4688    1.8356    0.0000 O   0  0  0  0  0  0  0  0  0  0  0  0
    4.1339    2.8053    0.0000 O   0  0  0  0  0  0  0  0  0  0  0  0
    1.6500   -2.9166    0.0000 O   0  0  0  0  0  0  0  0  0  0  0  0
    3.3000   -2.9166    0.0000 O   0  0  0  0  0  0  0  0  0  0  0  0
    4.3164    1.6530    0.0000 N   0  0  0  0  0  0  0  0  0  0  0  0
    4.5714    0.8684    0.0000 N   0  0  0  0  0  0  0  0  0  0  0  0
    2.4750   -2.0916    0.0000 N   0  0  0  0  0  0  0  0  0  0  0  0
    3.4914    1.6530    0.0000 C   0  0  0  0  0  0  0  0  0  0  0  0
    3.2365    0.8684    0.0000 C   0  0  0  0  0  0  0  0  0  0  0  0
    3.9039    0.3835    0.0000 C   0  0  0  0  0  0  0  0  0  0  0  0
    3.0066    2.3204    0.0000 C   0  0  0  0  0  0  0  0  0  0  0  0
    3.9039   -0.4415    0.0000 C   0  0  0  0  0  0  0  0  0  0  0  0
    3.3421    3.0741    0.0000 C   0  0  0  0  0  0  0  0  0  0  0  0
    2.1860    2.2342    0.0000 C   0  0  0  0  0  0  0  0  0  0  0  0
    5.2863    2.9879    0.0000 C   0  0  0  0  0  0  0  0  0  0  0  0
    3.1895   -0.8540    0.0000 C   0  0  0  0  0  0  0  0  0  0  0  0
    4.6185   -0.8540    0.0000 C   0  0  0  0  0  0  0  0  0  0  0  0
    3.1895   -1.6790    0.0000 C   0  0  0  0  0  0  0  0  0  0  0  0
    2.8572    3.7416    0.0000 C   0  0  0  0  0  0  0  0  0  0  0  0
    1.7012    2.9016    0.0000 C   0  0  0  0  0  0  0  0  0  0  0  0
    4.6185   -1.6790    0.0000 C   0  0  0  0  0  0  0  0  0  0  0  0
    2.0367    3.6553    0.0000 C   0  0  0  0  0  0  0  0  0  0  0  0
    3.9039   -2.0916    0.0000 C   0  0  0  0  0  0  0  0  0  0  0  0
    2.4750   -3.7416    0.0000 C   0  0  0  0  0  0  0  0  0  0  0  0
  1  3  2  0  0  0  0
  1  4  2  0  0  0  0
  1  7  1  0  0  0  0
  1 17  1  0  0  0  0
  2  5  2  0  0  0  0
  2  6  2  0  0  0  0
  2  9  1  0  0  0  0
  2 26  1  0  0  0  0
  7  8  1  0  0  0  0
  7 10  1  0  0  0  0
  8 12  2  0  0  0  0
  9 20  1  0  0  0  0
 10 11  1  0  0  0  0
 10 13  1  0  0  0  0
 11 12  1  0  0  0  0
 12 14  1  0  0  0  0
 13 15  2  0  0  0  0
 13 16  1  0  0  0  0
 14 18  2  0  0  0  0
 14 19  1  0  0  0  0
 15 21  1  0  0  0  0
 16 22  2  0  0  0  0
 18 20  1  0  0  0  0
 19 23  2  0  0  0  0
 20 25  2  0  0  0  0
 21 24  2  0  0  0  0
 22 24  1  0  0  0  0
 23 25  1  0  0  0  0
M  END
> <From>
www.bindingDB.org

> <BindingDB Reactant_set_id>
95223

> <Ligand InChI>
InChI=1S/C17H19N3O4S2/c1-25(21,22)19-15-10-6-9-14(11-15)16-12-17(13-7-4-3-5-8-13)20(18-16)26(2,23)24/h3-11,17,19H,12H2,1-2H3

> <Ligand InChI Key>
SGUZUMWSJWYABV-UHFFFAOYSA-N

> <BindingDB MonomerID>
51338

> <BindingDB Ligand Name>
MLS000680413::N-[3-(1-mesyl-5-phenyl-2-pyrazolin-3-yl)phenyl]methanesulfonamide::N-[3-(2-methylsulfonyl-3-phenyl-3,4-dihydropyrazol-5-yl)phenyl]methanesulfonamide::SMR000324553::cid_4248778

> <Target Name>
DNA repair protein RAD51 homolog 1

> <Target Source Organism According to Curator or DataSource>
Homo sapiens

> <Ki (nM)>


> <IC50 (nM)>
 53000

> <Kd (nM)>


> <EC50 (nM)>


> <kon (M-1-s-1)>


> <koff (s-1)>


> <pH>


> <Temp C>


> <Curation/DataSource>
PubChem

> <Article DOI>


> <BindingDB Entry DOI>
10.7270/Q2QN6558

> <PMID>


> <PubChem AID>
aid1437

> <Patent Number>


> <Authors>
PubChem, PC

> <Date of publication>
11/25/2008

> <Date in BindingDB>
5/31/2011

> <Institution>
PCMD

> <Link to Ligand in BindingDB>
http://www.bindingdb.org/bind/chemsearch/marvin/MolStructure.jsp?monomerid=51338

> <Link to Ligand-Target Pair in BindingDB>
http://www.bindingdb.org/jsp/dbsearch/PrimarySearch_ki.jsp?energyterm=kJ/mole&tag=pol&polymerid=4676&target=DNA+repair+protein+RAD51+homolog+1&column=ki&startPg=0&Increment=50&submit=Search

> <Link to Ligand-Target Pair in BindingDB>
http://www.bindingdb.org/jsp/dbsearch/PrimarySearch_ki.jsp?energyterm=kJ/mole&tag=r21&monomerid=51338&enzyme=DNA+repair+protein+RAD51+homolog+1&column=ki&startPg=0&Increment=50&submit=Search

> <Ligand HET ID in PDB>


> <PDB ID(s) for Ligand-Target Complex>


> <PubChem CID of Ligand>
4248778

> <PubChem SID of Ligand>
252631561

> <ChEBI ID of Ligand>


> <ChEMBL ID of Ligand>


> <DrugBank ID of Ligand>


> <IUPHAR_GRAC ID of Ligand>


> <KEGG ID of Ligand>


> <ZINC ID of Ligand>
ZINC02858765

> <Number of Protein Chains in Target (bigger than 1 implies a multichain complex)>
1

> <BindingDB Target Chain Sequence>
MAMQMQLEANADTSVEEESFGPQPISRLEQCGINANDVKKLEEAGFHTVEAVAYAPKKELINIKGISEAKADKILAEAAKLVPMGFTTATEFHQRRSEIIQITTGSKELDKLLQGGIETGSITEMFGEFRTGKTQICHTLAVTCQLPIDRGGGEGKAMYIDTEGTFRPERLLAVAERYGLSGSDVLDNVAYARAFNTDHQTQLLYQASAMMVESRYALLIVDSATALYRTDYSGRGELSARQMHLARFLRMLLRLADEFGVAVVITNQVVAQVDGAAMFAADPKKPIGGNIIAHASTTRLYLRKGRGETRICKIYDSPCLPEAEAMFAINADGVGDAKD

> <PDB ID(s) of Target Chain>
1N0W,5JZC,5NP7,5NWL,8BQ2,8BR2,8BSC

> <UniProt (SwissProt) Recommended Name of Target Chain>
DNA repair protein RAD51 homolog 1

> <UniProt (SwissProt) Entry Name of Target Chain>
RAD51_HUMAN

> <UniProt (SwissProt) Primary ID of Target Chain>
Q06609

> <UniProt (SwissProt) Secondary ID(s) of Target Chain>
B0FXP0 B2R8T6 Q6FHX9 Q6ZNA8 Q9BV60

> <UniProt (SwissProt) Alternative ID(s) of Target Chain>


> <UniProt (TrEMBL) Submitted Name of Target Chain>


> <UniProt (TrEMBL) Entry Name of Target Chain>


> <UniProt (TrEMBL) Primary ID of Target Chain>


> <UniProt (TrEMBL) Secondary ID(s) of Target Chain>


> <UniProt (TrEMBL) Alternative ID(s) of Target Chain>


$$$$
4098875
  Mrv0541 11251416042D          

 24 25  0  0  0  0            999 V2000
    4.6875    1.3210    0.0000 S   0  0  0  0  0  0  0  0  0  0  0  0
    3.0478   -1.2490    0.0000 S   0  0  0  0  0  0  0  0  0  0  0  0
    5.5125    1.3210    0.0000 O   0  0  0  0  0  0  0  0  0  0  0  0
    3.8625    1.3210    0.0000 O   0  0  0  0  0  0  0  0  0  0  0  0
    5.4020   -2.3916    0.0000 O   0  0  0  0  0  0  0  0  0  0  0  0
    4.6875    2.1460    0.0000 N   0  0  0  0  0  0  0  0  0  0  0  0
    3.9730   -2.3916    0.0000 N   0  0  0  0  0  0  0  0  0  0  0  0
    2.6673   -2.6691    0.0000 N   0  0  0  0  0  0  0  0  0  0  0  0
    4.6875    0.4960    0.0000 C   0  0  0  0  0  0  0  0  0  0  0  0
    5.4020    2.5585    0.0000 C   0  0  0  0  0  0  0  0  0  0  0  0
    3.9730    2.5585    0.0000 C   0  0  0  0  0  0  0  0  0  0  0  0
    3.8867   -3.2120    0.0000 C   0  0  0  0  0  0  0  0  0  0  0  0
    4.6875   -1.1540    0.0000 C   0  0  0  0  0  0  0  0  0  0  0  0
    3.0798   -3.3836    0.0000 C   0  0  0  0  0  0  0  0  0  0  0  0
    4.6875   -1.9791    0.0000 C   0  0  0  0  0  0  0  0  0  0  0  0
    3.9730    0.0835    0.0000 C   0  0  0  0  0  0  0  0  0  0  0  0
    5.4020    0.0835    0.0000 C   0  0  0  0  0  0  0  0  0  0  0  0
    3.2193   -2.0559    0.0000 C   0  0  0  0  0  0  0  0  0  0  0  0
    3.9730   -0.7415    0.0000 C   0  0  0  0  0  0  0  0  0  0  0  0
    5.4020   -0.7415    0.0000 C   0  0  0  0  0  0  0  0  0  0  0  0
    3.9730    3.3836    0.0000 C   0  0  0  0  0  0  0  0  0  0  0  0
    5.4020    3.3836    0.0000 C   0  0  0  0  0  0  0  0  0  0  0  0
    2.2631   -0.9941    0.0000 C   0  0  0  0  0  0  0  0  0  0  0  0
    1.6500   -1.5461    0.0000 C   0  0  0  0  0  0  0  0  0  0  0  0
  1  3  2  0  0  0  0
  1  4  2  0  0  0  0
  1  6  1  0  0  0  0
  1  9  1  0  0  0  0
  2 18  1  0  0  0  0
  2 23  1  0  0  0  0
  5 15  2  0  0  0  0
  6 10  1  0  0  0  0
  6 11  1  0  0  0  0
  7 12  1  0  0  0  0
  7 15  1  0  0  0  0
  7 18  1  0  0  0  0
  8 14  1  0  0  0  0
  8 18  2  0  0  0  0
  9 16  2  0  0  0  0
  9 17  1  0  0  0  0
 10 22  1  0  0  0  0
 11 21  1  0  0  0  0
 12 14  1  0  0  0  0
 13 15  1  0  0  0  0
 13 19  2  0  0  0  0
 13 20  1  0  0  0  0
 16 19  1  0  0  0  0
 17 20  2  0  0  0  0
 23 24  1  0  0  0  0
M  END
> <From>
www.bindingDB.org

> <BindingDB Reactant_set_id>
95224

> <Ligand InChI>
InChI=1S/C16H23N3O3S2/c1-4-18(5-2)24(21,22)14-9-7-13(8-10-14)15(20)19-12-11-17-16(19)23-6-3/h7-10H,4-6,11-12H2,1-3H3

> <Ligand InChI Key>
MCXBZAMNMCHDLO-UHFFFAOYSA-N

> <BindingDB MonomerID>
51339

> <BindingDB Ligand Name>
MLS000680414::N,N-diethyl-4-(2-ethylsulfanyl-4,5-dihydroimidazole-1-carbonyl)benzenesulfonamide::N,N-diethyl-4-[(2-ethylsulfanyl-4,5-dihydroimidazol-1-yl)carbonyl]benzenesulfonamide::N,N-diethyl-4-[2-(ethylthio)-2-imidazoline-1-carbonyl]benzenesulfonamide::N,N-diethyl-4-[[2-(ethylthio)-4,5-dihydroimidazol-1-yl]-oxomethyl]benzenesulfonamide::SMR000324559::cid_4098875

> <Target Name>
DNA repair protein RAD51 homolog 1

> <Target Source Organism According to Curator or DataSource>
Homo sapiens

> <Ki (nM)>


> <IC50 (nM)>
 53000

> <Kd (nM)>


> <EC50 (nM)>


> <kon (M-1-s-1)>


> <koff (s-1)>


> <pH>


> <Temp C>


> <Curation/DataSource>
PubChem

> <Article DOI>


> <BindingDB Entry DOI>
10.7270/Q2QN6558

> <PMID>


> <PubChem AID>
aid1437

> <Patent Number>


> <Authors>
PubChem, PC

> <Date of publication>
11/25/2008

> <Date in BindingDB>
5/31/2011

> <Institution>
PCMD

> <Link to Ligand in BindingDB>
http://www.bindingdb.org/bind/chemsearch/marvin/MolStructure.jsp?monomerid=51339

> <Link to Ligand-Target Pair in BindingDB>
http://www.bindingdb.org/jsp/dbsearch/PrimarySearch_ki.jsp?energyterm=kJ/mole&tag=pol&polymerid=4676&target=DNA+repair+protein+RAD51+homolog+1&column=ki&startPg=0&Increment=50&submit=Search

> <Link to Ligand-Target Pair in BindingDB>
http://www.bindingdb.org/jsp/dbsearch/PrimarySearch_ki.jsp?energyterm=kJ/mole&tag=r21&monomerid=51339&enzyme=DNA+repair+protein+RAD51+homolog+1&column=ki&startPg=0&Increment=50&submit=Search

> <Ligand HET ID in PDB>


> <PDB ID(s) for Ligand-Target Complex>


> <PubChem CID of Ligand>
4098875

> <PubChem SID of Ligand>
252631562

> <ChEBI ID of Ligand>


> <ChEMBL ID of Ligand>


> <DrugBank ID of Ligand>


> <IUPHAR_GRAC ID of Ligand>


> <KEGG ID of Ligand>


> <ZINC ID of Ligand>
ZINC00446541

> <Number of Protein Chains in Target (bigger than 1 implies a multichain complex)>
1

> <BindingDB Target Chain Sequence>
MAMQMQLEANADTSVEEESFGPQPISRLEQCGINANDVKKLEEAGFHTVEAVAYAPKKELINIKGISEAKADKILAEAAKLVPMGFTTATEFHQRRSEIIQITTGSKELDKLLQGGIETGSITEMFGEFRTGKTQICHTLAVTCQLPIDRGGGEGKAMYIDTEGTFRPERLLAVAERYGLSGSDVLDNVAYARAFNTDHQTQLLYQASAMMVESRYALLIVDSATALYRTDYSGRGELSARQMHLARFLRMLLRLADEFGVAVVITNQVVAQVDGAAMFAADPKKPIGGNIIAHASTTRLYLRKGRGETRICKIYDSPCLPEAEAMFAINADGVGDAKD

> <PDB ID(s) of Target Chain>
1N0W,5JZC,5NP7,5NWL,8BQ2,8BR2,8BSC

> <UniProt (SwissProt) Recommended Name of Target Chain>
DNA repair protein RAD51 homolog 1

> <UniProt (SwissProt) Entry Name of Target Chain>
RAD51_HUMAN

> <UniProt (SwissProt) Primary ID of Target Chain>
Q06609

> <UniProt (SwissProt) Secondary ID(s) of Target Chain>
B0FXP0 B2R8T6 Q6FHX9 Q6ZNA8 Q9BV60

> <UniProt (SwissProt) Alternative ID(s) of Target Chain>


> <UniProt (TrEMBL) Submitted Name of Target Chain>


> <UniProt (TrEMBL) Entry Name of Target Chain>


> <UniProt (TrEMBL) Primary ID of Target Chain>


> <UniProt (TrEMBL) Secondary ID(s) of Target Chain>


> <UniProt (TrEMBL) Alternative ID(s) of Target Chain>


$$$$
4596401
  Mrv0541 11251416042D          

 22 23  0  0  0  0            999 V2000
    4.6875    1.7335    0.0000 S   0  0  0  0  0  0  0  0  0  0  0  0
    3.0478   -0.8365    0.0000 S   0  0  0  0  0  0  0  0  0  0  0  0
    5.4020   -1.9791    0.0000 O   0  0  0  0  0  0  0  0  0  0  0  0
    5.5125    1.7335    0.0000 O   0  0  0  0  0  0  0  0  0  0  0  0
    3.8625    1.7335    0.0000 O   0  0  0  0  0  0  0  0  0  0  0  0
    3.9730   -1.9791    0.0000 N   0  0  0  0  0  0  0  0  0  0  0  0
    2.6673   -2.2566    0.0000 N   0  0  0  0  0  0  0  0  0  0  0  0
    4.6875    2.5585    0.0000 N   0  0  0  0  0  0  0  0  0  0  0  0
    3.8867   -2.7995    0.0000 C   0  0  0  0  0  0  0  0  0  0  0  0
    3.0798   -2.9711    0.0000 C   0  0  0  0  0  0  0  0  0  0  0  0
    3.2193   -1.6434    0.0000 C   0  0  0  0  0  0  0  0  0  0  0  0
    4.6875   -1.5665    0.0000 C   0  0  0  0  0  0  0  0  0  0  0  0
    4.6875   -0.7415    0.0000 C   0  0  0  0  0  0  0  0  0  0  0  0
    4.6875    0.9085    0.0000 C   0  0  0  0  0  0  0  0  0  0  0  0
    5.4020   -0.3290    0.0000 C   0  0  0  0  0  0  0  0  0  0  0  0
    3.9730   -0.3290    0.0000 C   0  0  0  0  0  0  0  0  0  0  0  0
    5.4020    0.4960    0.0000 C   0  0  0  0  0  0  0  0  0  0  0  0
    3.9730    0.4960    0.0000 C   0  0  0  0  0  0  0  0  0  0  0  0
    5.4020    2.9711    0.0000 C   0  0  0  0  0  0  0  0  0  0  0  0
    3.9730    2.9711    0.0000 C   0  0  0  0  0  0  0  0  0  0  0  0
    2.2631   -0.5816    0.0000 C   0  0  0  0  0  0  0  0  0  0  0  0
    1.6500   -1.1336    0.0000 C   0  0  0  0  0  0  0  0  0  0  0  0
  1  4  2  0  0  0  0
  1  5  2  0  0  0  0
  1  8  1  0  0  0  0
  1 14  1  0  0  0  0
  2 11  1  0  0  0  0
  2 21  1  0  0  0  0
  3 12  2  0  0  0  0
  6  9  1  0  0  0  0
  6 11  1  0  0  0  0
  6 12  1  0  0  0  0
  7 10  1  0  0  0  0
  7 11  2  0  0  0  0
  8 19  1  0  0  0  0
  8 20  1  0  0  0  0
  9 10  1  0  0  0  0
 12 13  1  0  0  0  0
 13 15  2  0  0  0  0
 13 16  1  0  0  0  0
 14 17  2  0  0  0  0
 14 18  1  0  0  0  0
 15 17  1  0  0  0  0
 16 18  2  0  0  0  0
 21 22  1  0  0  0  0
M  END
> <From>
www.bindingDB.org

> <BindingDB Reactant_set_id>
95225

> <Ligand InChI>
InChI=1S/C14H19N3O3S2/c1-4-21-14-15-9-10-17(14)13(18)11-5-7-12(8-6-11)22(19,20)16(2)3/h5-8H,4,9-10H2,1-3H3

> <Ligand InChI Key>
XNHPNRXGGRTZEX-UHFFFAOYSA-N

> <BindingDB MonomerID>
51340

> <BindingDB Ligand Name>
4-(2-ethylsulfanyl-4,5-dihydroimidazole-1-carbonyl)-N,N-dimethylbenzenesulfonamide::4-[(2-ethylsulfanyl-4,5-dihydroimidazol-1-yl)carbonyl]-N,N-dimethyl-benzenesulfonamide::4-[2-(ethylthio)-2-imidazoline-1-carbonyl]-N,N-dimethyl-benzenesulfonamide::4-[[2-(ethylthio)-4,5-dihydroimidazol-1-yl]-oxomethyl]-N,N-dimethylbenzenesulfonamide::MLS000680416::SMR000324558::cid_4596401

> <Target Name>
DNA repair protein RAD51 homolog 1

> <Target Source Organism According to Curator or DataSource>
Homo sapiens

> <Ki (nM)>


> <IC50 (nM)>
 53000

> <Kd (nM)>


> <EC50 (nM)>


> <kon (M-1-s-1)>


> <koff (s-1)>


> <pH>


> <Temp C>


> <Curation/DataSource>
PubChem

> <Article DOI>


> <BindingDB Entry DOI>
10.7270/Q2QN6558

> <PMID>


> <PubChem AID>
aid1437

> <Patent Number>


> <Authors>
PubChem, PC

> <Date of publication>
11/25/2008

> <Date in BindingDB>
5/31/2011

> <Institution>
PCMD

> <Link to Ligand in BindingDB>
http://www.bindingdb.org/bind/chemsearch/marvin/MolStructure.jsp?monomerid=51340

> <Link to Ligand-Target Pair in BindingDB>
http://www.bindingdb.org/jsp/dbsearch/PrimarySearch_ki.jsp?energyterm=kJ/mole&tag=pol&polymerid=4676&target=DNA+repair+protein+RAD51+homolog+1&column=ki&startPg=0&Increment=50&submit=Search

> <Link to Ligand-Target Pair in BindingDB>
http://www.bindingdb.org/jsp/dbsearch/PrimarySearch_ki.jsp?energyterm=kJ/mole&tag=r21&monomerid=51340&enzyme=DNA+repair+protein+RAD51+homolog+1&column=ki&startPg=0&Increment=50&submit=Search

> <Ligand HET ID in PDB>


> <PDB ID(s) for Ligand-Target Complex>


> <PubChem CID of Ligand>
4596401

> <PubChem SID of Ligand>
252631563

> <ChEBI ID of Ligand>


> <ChEMBL ID of Ligand>


> <DrugBank ID of Ligand>


> <IUPHAR_GRAC ID of Ligand>


> <KEGG ID of Ligand>


> <ZINC ID of Ligand>
ZINC37867298

> <Number of Protein Chains in Target (bigger than 1 implies a multichain complex)>
1

> <BindingDB Target Chain Sequence>
MAMQMQLEANADTSVEEESFGPQPISRLEQCGINANDVKKLEEAGFHTVEAVAYAPKKELINIKGISEAKADKILAEAAKLVPMGFTTATEFHQRRSEIIQITTGSKELDKLLQGGIETGSITEMFGEFRTGKTQICHTLAVTCQLPIDRGGGEGKAMYIDTEGTFRPERLLAVAERYGLSGSDVLDNVAYARAFNTDHQTQLLYQASAMMVESRYALLIVDSATALYRTDYSGRGELSARQMHLARFLRMLLRLADEFGVAVVITNQVVAQVDGAAMFAADPKKPIGGNIIAHASTTRLYLRKGRGETRICKIYDSPCLPEAEAMFAINADGVGDAKD

> <PDB ID(s) of Target Chain>
1N0W,5JZC,5NP7,5NWL,8BQ2,8BR2,8BSC

> <UniProt (SwissProt) Recommended Name of Target Chain>
DNA repair protein RAD51 homolog 1

> <UniProt (SwissProt) Entry Name of Target Chain>
RAD51_HUMAN

> <UniProt (SwissProt) Primary ID of Target Chain>
Q06609

> <UniProt (SwissProt) Secondary ID(s) of Target Chain>
B0FXP0 B2R8T6 Q6FHX9 Q6ZNA8 Q9BV60

> <UniProt (SwissProt) Alternative ID(s) of Target Chain>


> <UniProt (TrEMBL) Submitted Name of Target Chain>


> <UniProt (TrEMBL) Entry Name of Target Chain>


> <UniProt (TrEMBL) Primary ID of Target Chain>


> <UniProt (TrEMBL) Secondary ID(s) of Target Chain>


> <UniProt (TrEMBL) Alternative ID(s) of Target Chain>


$$$$
00338001.cdx
  Mrv0541 07212217012D          

 37 39  0  0  0  0            999 V2000
    0.1990    2.0929    0.0000 N   0  0  0  0  0  0  0  0  0  0  0  0
   -0.6260    2.0929    0.0000 C   0  0  0  0  0  0  0  0  0  0  0  0
   -0.8810    1.3082    0.0000 C   0  0  0  0  0  0  0  0  0  0  0  0
   -0.2135    0.8233    0.0000 S   0  0  0  0  0  0  0  0  0  0  0  0
    0.4539    1.3082    0.0000 C   0  0  0  0  0  0  0  0  0  0  0  0
   -1.6779    1.0947    0.0000 C   0  0  0  0  0  0  0  0  0  0  0  0
   -2.2612    1.6781    0.0000 C   0  0  0  0  0  0  0  0  0  0  0  0
   -3.0581    1.4645    0.0000 C   0  0  0  0  0  0  0  0  0  0  0  0
   -3.2716    0.6677    0.0000 C   0  0  0  0  0  0  0  0  0  0  0  0
   -2.6883    0.0843    0.0000 C   0  0  0  0  0  0  0  0  0  0  0  0
   -1.8914    0.2978    0.0000 C   0  0  0  0  0  0  0  0  0  0  0  0
   -1.3080   -0.2855    0.0000 S   0  0  0  0  0  0  0  0  0  0  0  0
   -1.5215   -1.0824    0.0000 N   0  0  0  0  0  0  0  0  0  0  0  0
   -0.5111   -0.4991    0.0000 O   0  0  0  0  0  0  0  0  0  0  0  0
   -0.7247    0.2978    0.0000 O   0  0  0  0  0  0  0  0  0  0  0  0
   -2.3184   -1.2960    0.0000 C   0  0  0  0  0  0  0  0  0  0  0  0
   -2.5320   -2.0929    0.0000 C   0  0  0  0  0  0  0  0  0  0  0  0
   -2.9018   -0.7126    0.0000 C   0  0  0  0  0  0  0  0  0  0  0  0
   -3.1153   -1.5095    0.0000 C   0  0  0  0  0  0  0  0  0  0  0  0
    1.2508    1.0947    0.0000 C   0  0  0  0  0  0  0  0  0  0  0  0
    1.4643    0.2978    0.0000 C   0  0  0  0  0  0  0  0  0  0  0  0
    2.2612    0.0843    0.0000 C   0  0  0  0  0  0  0  0  0  0  0  0
    2.8446    0.6677    0.0000 C   0  0  0  0  0  0  0  0  0  0  0  0
    2.6311    1.4645    0.0000 C   0  0  0  0  0  0  0  0  0  0  0  0
    1.8342    1.6781    0.0000 C   0  0  0  0  0  0  0  0  0  0  0  0
    3.6415    0.4541    0.0000 N   0  0  0  0  0  0  0  0  0  0  0  0
    3.8550   -0.3428    0.0000 C   0  0  0  0  0  0  0  0  0  0  0  0
    4.6519   -0.5563    0.0000 N   0  0  0  0  0  0  0  0  0  0  0  0
    3.2716   -0.9261    0.0000 S   0  0  0  0  0  0  0  0  0  0  0  0
    5.2352    0.0271    0.0000 C   0  0  0  0  0  0  0  0  0  0  0  0
    6.0321   -0.1864    0.0000 C   0  0  0  0  0  0  0  0  0  0  0  0
    5.0217    0.8240    0.0000 C   0  0  0  0  0  0  0  0  0  0  0  0
   -4.0685    0.4541    0.0000 N   0  0  0  0  0  0  0  0  0  0  0  0
   -4.6519    1.0375    0.0000 C   0  0  0  0  0  0  0  0  0  0  0  0
   -5.4488    0.8240    0.0000 O   0  0  0  0  0  0  0  0  0  0  0  0
   -4.4384    1.8344    0.0000 O   0  0  0  0  0  0  0  0  0  0  0  0
   -6.0321    1.4073    0.0000 C   0  0  0  0  0  0  0  0  0  0  0  0
  1  2  4  0  0  0  0
  2  3  4  0  0  0  0
  3  4  4  0  0  0  0
  4  5  4  0  0  0  0
  5  1  4  0  0  0  0
  3  6  1  0  0  0  0
  6  7  4  0  0  0  0
  7  8  4  0  0  0  0
  8  9  4  0  0  0  0
  9 10  4  0  0  0  0
 10 11  4  0  0  0  0
 11  6  4  0  0  0  0
  9 33  1  0  0  0  0
 11 12  1  0  0  0  0
 12 13  1  0  0  0  0
 12 14  2  0  0  0  0
 15 12  2  0  0  0  0
 13 16  1  0  0  0  0
 16 17  1  0  0  0  0
 16 18  1  0  0  0  0
 16 19  1  0  0  0  0
  5 20  1  0  0  0  0
 20 21  4  0  0  0  0
 21 22  4  0  0  0  0
 22 23  4  0  0  0  0
 23 24  4  0  0  0  0
 24 25  4  0  0  0  0
 25 20  4  0  0  0  0
 23 26  1  0  0  0  0
 26 27  1  0  0  0  0
 27 28  1  0  0  0  0
 27 29  2  0  0  0  0
 28 30  1  0  0  0  0
 30 31  1  0  0  0  0
 30 32  1  0  0  0  0
 33 34  1  0  0  0  0
 34 35  1  0  0  0  0
 34 36  2  0  0  0  0
 35 37  1  0  0  0  0
M  END
> <From>
www.bindingDB.org

> <BindingDB Reactant_set_id>
1155327

> <Ligand InChI>
InChI=1S/C25H31N5O4S3/c1-15(2)27-23(35)28-17-9-7-16(8-10-17)22-26-14-20(36-22)19-12-11-18(29-24(31)34-6)13-21(19)37(32,33)30-25(3,4)5/h7-15,30H,1-6H3,(H,29,31)(H2,27,28,35)

> <Ligand InChI Key>
FCULBAFYWRXZIO-UHFFFAOYSA-N

> <BindingDB MonomerID>
546477

> <BindingDB Ligand Name>
US11291655, No L7

> <Target Name>
DNA repair protein RAD51 homolog 1

> <Target Source Organism According to Curator or DataSource>
Homo sapiens

> <Ki (nM)>


> <IC50 (nM)>


> <Kd (nM)>


> <EC50 (nM)>
>10000

> <kon (M-1-s-1)>


> <koff (s-1)>


> <pH>


> <Temp C>


> <Curation/DataSource>
US Patent

> <Article DOI>


> <BindingDB Entry DOI>
10.7270/Q2NG4TV0

> <PMID>


> <PubChem AID>
aid1806421

> <Patent Number>
US11291655

> <Authors>
Castro, AC; McComas, CC; Vacca, J

> <Date of publication>
4/5/2022

> <Date in BindingDB>
7/21/2022

> <Institution>
Cyteir Therapeutics, Inc.

> <Link to Ligand in BindingDB>
http://www.bindingdb.org/bind/chemsearch/marvin/MolStructure.jsp?monomerid=546477

> <Link to Ligand-Target Pair in BindingDB>
http://www.bindingdb.org/jsp/dbsearch/PrimarySearch_ki.jsp?energyterm=kJ/mole&tag=pol&polymerid=4676&target=DNA+repair+protein+RAD51+homolog+1&column=ki&startPg=0&Increment=50&submit=Search

> <Link to Ligand-Target Pair in BindingDB>
http://www.bindingdb.org/jsp/dbsearch/PrimarySearch_ki.jsp?energyterm=kJ/mole&tag=r21&monomerid=546477&enzyme=DNA+repair+protein+RAD51+homolog+1&column=ki&startPg=0&Increment=50&submit=Search

> <Ligand HET ID in PDB>


> <PDB ID(s) for Ligand-Target Complex>


> <PubChem CID of Ligand>
137412061

> <PubChem SID of Ligand>
469681173

> <ChEBI ID of Ligand>


> <ChEMBL ID of Ligand>


> <DrugBank ID of Ligand>


> <IUPHAR_GRAC ID of Ligand>


> <KEGG ID of Ligand>


> <ZINC ID of Ligand>


> <Number of Protein Chains in Target (bigger than 1 implies a multichain complex)>
1

> <BindingDB Target Chain Sequence>
MAMQMQLEANADTSVEEESFGPQPISRLEQCGINANDVKKLEEAGFHTVEAVAYAPKKELINIKGISEAKADKILAEAAKLVPMGFTTATEFHQRRSEIIQITTGSKELDKLLQGGIETGSITEMFGEFRTGKTQICHTLAVTCQLPIDRGGGEGKAMYIDTEGTFRPERLLAVAERYGLSGSDVLDNVAYARAFNTDHQTQLLYQASAMMVESRYALLIVDSATALYRTDYSGRGELSARQMHLARFLRMLLRLADEFGVAVVITNQVVAQVDGAAMFAADPKKPIGGNIIAHASTTRLYLRKGRGETRICKIYDSPCLPEAEAMFAINADGVGDAKD

> <PDB ID(s) of Target Chain>
1N0W,5JZC,5NP7,5NWL,8BQ2,8BR2,8BSC

> <UniProt (SwissProt) Recommended Name of Target Chain>
DNA repair protein RAD51 homolog 1

> <UniProt (SwissProt) Entry Name of Target Chain>
RAD51_HUMAN

> <UniProt (SwissProt) Primary ID of Target Chain>
Q06609

> <UniProt (SwissProt) Secondary ID(s) of Target Chain>
B0FXP0 B2R8T6 Q6FHX9 Q6ZNA8 Q9BV60

> <UniProt (SwissProt) Alternative ID(s) of Target Chain>


> <UniProt (TrEMBL) Submitted Name of Target Chain>


> <UniProt (TrEMBL) Entry Name of Target Chain>


> <UniProt (TrEMBL) Primary ID of Target Chain>


> <UniProt (TrEMBL) Secondary ID(s) of Target Chain>


> <UniProt (TrEMBL) Alternative ID(s) of Target Chain>


$$$$
00339001.cdx
  Mrv0541 07212217012D          

 43 46  0  0  0  0            999 V2000
    1.3943    2.0929    0.0000 N   0  0  0  0  0  0  0  0  0  0  0  0
    0.5693    2.0929    0.0000 C   0  0  0  0  0  0  0  0  0  0  0  0
    0.3144    1.3082    0.0000 C   0  0  0  0  0  0  0  0  0  0  0  0
    0.9818    0.8233    0.0000 S   0  0  0  0  0  0  0  0  0  0  0  0
    1.6492    1.3082    0.0000 C   0  0  0  0  0  0  0  0  0  0  0  0
   -0.4825    1.0947    0.0000 C   0  0  0  0  0  0  0  0  0  0  0  0
   -1.0659    1.6781    0.0000 C   0  0  0  0  0  0  0  0  0  0  0  0
   -1.8628    1.4645    0.0000 C   0  0  0  0  0  0  0  0  0  0  0  0
   -2.0763    0.6677    0.0000 C   0  0  0  0  0  0  0  0  0  0  0  0
   -1.4929    0.0843    0.0000 C   0  0  0  0  0  0  0  0  0  0  0  0
   -0.6960    0.2978    0.0000 C   0  0  0  0  0  0  0  0  0  0  0  0
   -0.1127   -0.2855    0.0000 S   0  0  0  0  0  0  0  0  0  0  0  0
   -0.3262   -1.0824    0.0000 N   0  0  0  0  0  0  0  0  0  0  0  0
    0.6842   -0.4991    0.0000 O   0  0  0  0  0  0  0  0  0  0  0  0
    0.4707    0.2978    0.0000 O   0  0  0  0  0  0  0  0  0  0  0  0
   -1.1231   -1.2960    0.0000 C   0  0  0  0  0  0  0  0  0  0  0  0
   -1.3366   -2.0929    0.0000 C   0  0  0  0  0  0  0  0  0  0  0  0
   -1.7065   -0.7126    0.0000 C   0  0  0  0  0  0  0  0  0  0  0  0
   -1.9200   -1.5095    0.0000 C   0  0  0  0  0  0  0  0  0  0  0  0
    2.4461    1.0947    0.0000 C   0  0  0  0  0  0  0  0  0  0  0  0
    2.6597    0.2978    0.0000 C   0  0  0  0  0  0  0  0  0  0  0  0
    3.4565    0.0843    0.0000 C   0  0  0  0  0  0  0  0  0  0  0  0
    4.0399    0.6677    0.0000 C   0  0  0  0  0  0  0  0  0  0  0  0
    3.8264    1.4645    0.0000 C   0  0  0  0  0  0  0  0  0  0  0  0
    3.0295    1.6781    0.0000 C   0  0  0  0  0  0  0  0  0  0  0  0
    4.8368    0.4541    0.0000 N   0  0  0  0  0  0  0  0  0  0  0  0
    5.0503   -0.3428    0.0000 C   0  0  0  0  0  0  0  0  0  0  0  0
    5.8472   -0.5563    0.0000 O   0  0  0  0  0  0  0  0  0  0  0  0
    4.4670   -0.9261    0.0000 O   0  0  0  0  0  0  0  0  0  0  0  0
    6.4306    0.0271    0.0000 C   0  0  0  0  0  0  0  0  0  0  0  0
    7.2275   -0.1864    0.0000 C   0  0  0  0  0  0  0  0  0  0  0  0
    6.2171    0.8240    0.0000 C   0  0  0  0  0  0  0  0  0  0  0  0
   -2.8732    0.4541    0.0000 N   0  0  0  0  0  0  0  0  0  0  0  0
   -3.4565    1.0375    0.0000 C   0  0  0  0  0  0  0  0  0  0  0  0
   -4.2534    0.8240    0.0000 N   0  0  0  0  0  0  0  0  0  0  0  0
   -3.2430    1.8344    0.0000 S   0  0  0  0  0  0  0  0  0  0  0  0
   -4.8368    1.4073    0.0000 C   0  0  0  0  0  0  0  0  0  0  0  0
   -5.6337    1.1938    0.0000 C   0  0  0  0  0  0  0  0  0  0  0  0
   -6.2171    1.7772    0.0000 C   0  0  0  0  0  0  0  0  0  0  0  0
   -7.0139    1.5636    0.0000 C   0  0  0  0  0  0  0  0  0  0  0  0
   -7.2275    0.7668    0.0000 C   0  0  0  0  0  0  0  0  0  0  0  0
   -6.6441    0.1834    0.0000 C   0  0  0  0  0  0  0  0  0  0  0  0
   -5.8472    0.3969    0.0000 C   0  0  0  0  0  0  0  0  0  0  0  0
  1  2  4  0  0  0  0
  2  3  4  0  0  0  0
  3  4  4  0  0  0  0
  4  5  4  0  0  0  0
  5  1  4  0  0  0  0
  3  6  1  0  0  0  0
  6  7  4  0  0  0  0
  7  8  4  0  0  0  0
  8  9  4  0  0  0  0
  9 10  4  0  0  0  0
 10 11  4  0  0  0  0
 11  6  4  0  0  0  0
  9 33  1  0  0  0  0
 11 12  1  0  0  0  0
 12 13  1  0  0  0  0
 12 14  2  0  0  0  0
 15 12  2  0  0  0  0
 13 16  1  0  0  0  0
 16 17  1  0  0  0  0
 16 18  1  0  0  0  0
 16 19  1  0  0  0  0
  5 20  1  0  0  0  0
 20 21  4  0  0  0  0
 21 22  4  0  0  0  0
 22 23  4  0  0  0  0
 23 24  4  0  0  0  0
 24 25  4  0  0  0  0
 25 20  4  0  0  0  0
 23 26  1  0  0  0  0
 26 27  1  0  0  0  0
 27 28  1  0  0  0  0
 27 29  2  0  0  0  0
 28 30  1  0  0  0  0
 30 31  1  0  0  0  0
 30 32  1  0  0  0  0
 33 34  1  0  0  0  0
 34 35  1  0  0  0  0
 34 36  2  0  0  0  0
 35 37  1  0  0  0  0
 37 38  1  0  0  0  0
 38 39  4  0  0  0  0
 39 40  4  0  0  0  0
 40 41  4  0  0  0  0
 41 42  4  0  0  0  0
 42 43  4  0  0  0  0
 43 38  4  0  0  0  0
M  END
> <From>
www.bindingDB.org

> <BindingDB Reactant_set_id>
1155328

> <Ligand InChI>
InChI=1S/C31H35N5O4S3/c1-20(2)40-30(37)35-23-13-11-22(12-14-23)28-32-19-26(42-28)25-16-15-24(17-27(25)43(38,39)36-31(3,4)5)34-29(41)33-18-21-9-7-6-8-10-21/h6-17,19-20,36H,18H2,1-5H3,(H,35,37)(H2,33,34,41)

> <Ligand InChI Key>
VZQJACNIMFJCLE-UHFFFAOYSA-N

> <BindingDB MonomerID>
546478

> <BindingDB Ligand Name>
US11291655, No L8

> <Target Name>
DNA repair protein RAD51 homolog 1

> <Target Source Organism According to Curator or DataSource>
Homo sapiens

> <Ki (nM)>


> <IC50 (nM)>


> <Kd (nM)>


> <EC50 (nM)>
<1000

> <kon (M-1-s-1)>


> <koff (s-1)>


> <pH>


> <Temp C>


> <Curation/DataSource>
US Patent

> <Article DOI>


> <BindingDB Entry DOI>
10.7270/Q2NG4TV0

> <PMID>


> <PubChem AID>
aid1806421

> <Patent Number>
US11291655

> <Authors>
Castro, AC; McComas, CC; Vacca, J

> <Date of publication>
4/5/2022

> <Date in BindingDB>
7/21/2022

> <Institution>
Cyteir Therapeutics, Inc.

> <Link to Ligand in BindingDB>
http://www.bindingdb.org/bind/chemsearch/marvin/MolStructure.jsp?monomerid=546478

> <Link to Ligand-Target Pair in BindingDB>
http://www.bindingdb.org/jsp/dbsearch/PrimarySearch_ki.jsp?energyterm=kJ/mole&tag=pol&polymerid=4676&target=DNA+repair+protein+RAD51+homolog+1&column=ki&startPg=0&Increment=50&submit=Search

> <Link to Ligand-Target Pair in BindingDB>
http://www.bindingdb.org/jsp/dbsearch/PrimarySearch_ki.jsp?energyterm=kJ/mole&tag=r21&monomerid=546478&enzyme=DNA+repair+protein+RAD51+homolog+1&column=ki&startPg=0&Increment=50&submit=Search

> <Ligand HET ID in PDB>


> <PDB ID(s) for Ligand-Target Complex>


> <PubChem CID of Ligand>
137411922

> <PubChem SID of Ligand>
469681174

> <ChEBI ID of Ligand>


> <ChEMBL ID of Ligand>


> <DrugBank ID of Ligand>


> <IUPHAR_GRAC ID of Ligand>


> <KEGG ID of Ligand>


> <ZINC ID of Ligand>


> <Number of Protein Chains in Target (bigger than 1 implies a multichain complex)>
1

> <BindingDB Target Chain Sequence>
MAMQMQLEANADTSVEEESFGPQPISRLEQCGINANDVKKLEEAGFHTVEAVAYAPKKELINIKGISEAKADKILAEAAKLVPMGFTTATEFHQRRSEIIQITTGSKELDKLLQGGIETGSITEMFGEFRTGKTQICHTLAVTCQLPIDRGGGEGKAMYIDTEGTFRPERLLAVAERYGLSGSDVLDNVAYARAFNTDHQTQLLYQASAMMVESRYALLIVDSATALYRTDYSGRGELSARQMHLARFLRMLLRLADEFGVAVVITNQVVAQVDGAAMFAADPKKPIGGNIIAHASTTRLYLRKGRGETRICKIYDSPCLPEAEAMFAINADGVGDAKD

> <PDB ID(s) of Target Chain>
1N0W,5JZC,5NP7,5NWL,8BQ2,8BR2,8BSC

> <UniProt (SwissProt) Recommended Name of Target Chain>
DNA repair protein RAD51 homolog 1

> <UniProt (SwissProt) Entry Name of Target Chain>
RAD51_HUMAN

> <UniProt (SwissProt) Primary ID of Target Chain>
Q06609

> <UniProt (SwissProt) Secondary ID(s) of Target Chain>
B0FXP0 B2R8T6 Q6FHX9 Q6ZNA8 Q9BV60

> <UniProt (SwissProt) Alternative ID(s) of Target Chain>


> <UniProt (TrEMBL) Submitted Name of Target Chain>


> <UniProt (TrEMBL) Entry Name of Target Chain>


> <UniProt (TrEMBL) Primary ID of Target Chain>


> <UniProt (TrEMBL) Secondary ID(s) of Target Chain>


> <UniProt (TrEMBL) Alternative ID(s) of Target Chain>


$$$$
00340001.cdx
  Mrv0541 07212217012D          

 40 43  0  0  0  0            999 V2000
   -0.8896    2.0929    0.0000 N   0  0  0  0  0  0  0  0  0  0  0  0
   -1.7146    2.0929    0.0000 C   0  0  0  0  0  0  0  0  0  0  0  0
   -1.9695    1.3082    0.0000 C   0  0  0  0  0  0  0  0  0  0  0  0
   -1.3021    0.8233    0.0000 S   0  0  0  0  0  0  0  0  0  0  0  0
   -0.6347    1.3082    0.0000 C   0  0  0  0  0  0  0  0  0  0  0  0
   -2.7664    1.0947    0.0000 C   0  0  0  0  0  0  0  0  0  0  0  0
   -3.3498    1.6781    0.0000 C   0  0  0  0  0  0  0  0  0  0  0  0
   -4.1467    1.4645    0.0000 C   0  0  0  0  0  0  0  0  0  0  0  0
   -4.3602    0.6677    0.0000 C   0  0  0  0  0  0  0  0  0  0  0  0
   -3.7768    0.0843    0.0000 C   0  0  0  0  0  0  0  0  0  0  0  0
   -2.9799    0.2978    0.0000 C   0  0  0  0  0  0  0  0  0  0  0  0
   -2.3966   -0.2855    0.0000 S   0  0  0  0  0  0  0  0  0  0  0  0
   -2.6101   -1.0824    0.0000 N   0  0  0  0  0  0  0  0  0  0  0  0
   -1.5997   -0.4991    0.0000 O   0  0  0  0  0  0  0  0  0  0  0  0
   -1.8132    0.2978    0.0000 O   0  0  0  0  0  0  0  0  0  0  0  0
   -3.4070   -1.2960    0.0000 C   0  0  0  0  0  0  0  0  0  0  0  0
   -3.6205   -2.0929    0.0000 C   0  0  0  0  0  0  0  0  0  0  0  0
   -3.9904   -0.7126    0.0000 C   0  0  0  0  0  0  0  0  0  0  0  0
   -4.2039   -1.5095    0.0000 C   0  0  0  0  0  0  0  0  0  0  0  0
    0.1622    1.0947    0.0000 C   0  0  0  0  0  0  0  0  0  0  0  0
    0.3758    0.2978    0.0000 C   0  0  0  0  0  0  0  0  0  0  0  0
    1.1726    0.0843    0.0000 C   0  0  0  0  0  0  0  0  0  0  0  0
    1.7560    0.6677    0.0000 C   0  0  0  0  0  0  0  0  0  0  0  0
    1.5425    1.4645    0.0000 C   0  0  0  0  0  0  0  0  0  0  0  0
    0.7456    1.6781    0.0000 C   0  0  0  0  0  0  0  0  0  0  0  0
    2.5529    0.4541    0.0000 N   0  0  0  0  0  0  0  0  0  0  0  0
    2.7664   -0.3428    0.0000 C   0  0  0  0  0  0  0  0  0  0  0  0
    3.5633   -0.5563    0.0000 N   0  0  0  0  0  0  0  0  0  0  0  0
    2.1831   -0.9261    0.0000 S   0  0  0  0  0  0  0  0  0  0  0  0
    4.1467    0.0271    0.0000 C   0  0  0  0  0  0  0  0  0  0  0  0
    4.9436   -0.1864    0.0000 C   0  0  0  0  0  0  0  0  0  0  0  0
   -5.1571    0.4541    0.0000 N   0  0  0  0  0  0  0  0  0  0  0  0
   -5.7405    1.0375    0.0000 C   0  0  0  0  0  0  0  0  0  0  0  0
   -6.5373    0.8240    0.0000 C   0  0  0  0  0  0  0  0  0  0  0  0
   -5.5269    1.8344    0.0000 O   0  0  0  0  0  0  0  0  0  0  0  0
    5.1571   -0.9833    0.0000 C   0  0  0  0  0  0  0  0  0  0  0  0
    5.9540   -1.1969    0.0000 C   0  0  0  0  0  0  0  0  0  0  0  0
    6.5373   -0.6135    0.0000 C   0  0  0  0  0  0  0  0  0  0  0  0
    6.3238    0.1834    0.0000 C   0  0  0  0  0  0  0  0  0  0  0  0
    5.5269    0.3969    0.0000 C   0  0  0  0  0  0  0  0  0  0  0  0
  1  2  4  0  0  0  0
  2  3  4  0  0  0  0
  3  4  4  0  0  0  0
  4  5  4  0  0  0  0
  5  1  4  0  0  0  0
  3  6  1  0  0  0  0
  6  7  4  0  0  0  0
  7  8  4  0  0  0  0
  8  9  4  0  0  0  0
  9 10  4  0  0  0  0
 10 11  4  0  0  0  0
 11  6  4  0  0  0  0
  9 32  1  0  0  0  0
 11 12  1  0  0  0  0
 12 13  1  0  0  0  0
 12 14  2  0  0  0  0
 15 12  2  0  0  0  0
 13 16  1  0  0  0  0
 16 17  1  0  0  0  0
 16 18  1  0  0  0  0
 16 19  1  0  0  0  0
  5 20  1  0  0  0  0
 20 21  4  0  0  0  0
 21 22  4  0  0  0  0
 22 23  4  0  0  0  0
 23 24  4  0  0  0  0
 24 25  4  0  0  0  0
 25 20  4  0  0  0  0
 23 26  1  0  0  0  0
 26 27  1  0  0  0  0
 27 28  1  0  0  0  0
 27 29  2  0  0  0  0
 28 30  1  0  0  0  0
 30 31  1  0  0  0  0
 32 33  1  0  0  0  0
 33 34  1  0  0  0  0
 33 35  2  0  0  0  0
 31 36  4  0  0  0  0
 36 37  4  0  0  0  0
 37 38  4  0  0  0  0
 38 39  4  0  0  0  0
 39 40  4  0  0  0  0
 40 31  4  0  0  0  0
M  END
> <From>
www.bindingDB.org

> <BindingDB Reactant_set_id>
1155329

> <Ligand InChI>
InChI=1S/C29H31N5O3S3/c1-19(35)32-23-14-15-24(26(16-23)40(36,37)34-29(2,3)4)25-18-30-27(39-25)21-10-12-22(13-11-21)33-28(38)31-17-20-8-6-5-7-9-20/h5-16,18,34H,17H2,1-4H3,(H,32,35)(H2,31,33,38)

> <Ligand InChI Key>
RTUSCXVCRBISOM-UHFFFAOYSA-N

> <BindingDB MonomerID>
546479

> <BindingDB Ligand Name>
US11291655, No L9

> <Target Name>
DNA repair protein RAD51 homolog 1

> <Target Source Organism According to Curator or DataSource>
Homo sapiens

> <Ki (nM)>


> <IC50 (nM)>


> <Kd (nM)>


> <EC50 (nM)>
<5000

> <kon (M-1-s-1)>


> <koff (s-1)>


> <pH>


> <Temp C>


> <Curation/DataSource>
US Patent

> <Article DOI>


> <BindingDB Entry DOI>
10.7270/Q2NG4TV0

> <PMID>


> <PubChem AID>
aid1806421

> <Patent Number>
US11291655

> <Authors>
Castro, AC; McComas, CC; Vacca, J

> <Date of publication>
4/5/2022

> <Date in BindingDB>
7/21/2022

> <Institution>
Cyteir Therapeutics, Inc.

> <Link to Ligand in BindingDB>
http://www.bindingdb.org/bind/chemsearch/marvin/MolStructure.jsp?monomerid=546479

> <Link to Ligand-Target Pair in BindingDB>
http://www.bindingdb.org/jsp/dbsearch/PrimarySearch_ki.jsp?energyterm=kJ/mole&tag=pol&polymerid=4676&target=DNA+repair+protein+RAD51+homolog+1&column=ki&startPg=0&Increment=50&submit=Search

> <Link to Ligand-Target Pair in BindingDB>
http://www.bindingdb.org/jsp/dbsearch/PrimarySearch_ki.jsp?energyterm=kJ/mole&tag=r21&monomerid=546479&enzyme=DNA+repair+protein+RAD51+homolog+1&column=ki&startPg=0&Increment=50&submit=Search

> <Ligand HET ID in PDB>


> <PDB ID(s) for Ligand-Target Complex>


> <PubChem CID of Ligand>
137412062

> <PubChem SID of Ligand>
469681175

> <ChEBI ID of Ligand>


> <ChEMBL ID of Ligand>


> <DrugBank ID of Ligand>


> <IUPHAR_GRAC ID of Ligand>


> <KEGG ID of Ligand>


> <ZINC ID of Ligand>


> <Number of Protein Chains in Target (bigger than 1 implies a multichain complex)>
1

> <BindingDB Target Chain Sequence>
MAMQMQLEANADTSVEEESFGPQPISRLEQCGINANDVKKLEEAGFHTVEAVAYAPKKELINIKGISEAKADKILAEAAKLVPMGFTTATEFHQRRSEIIQITTGSKELDKLLQGGIETGSITEMFGEFRTGKTQICHTLAVTCQLPIDRGGGEGKAMYIDTEGTFRPERLLAVAERYGLSGSDVLDNVAYARAFNTDHQTQLLYQASAMMVESRYALLIVDSATALYRTDYSGRGELSARQMHLARFLRMLLRLADEFGVAVVITNQVVAQVDGAAMFAADPKKPIGGNIIAHASTTRLYLRKGRGETRICKIYDSPCLPEAEAMFAINADGVGDAKD

> <PDB ID(s) of Target Chain>
1N0W,5JZC,5NP7,5NWL,8BQ2,8BR2,8BSC

> <UniProt (SwissProt) Recommended Name of Target Chain>
DNA repair protein RAD51 homolog 1

> <UniProt (SwissProt) Entry Name of Target Chain>
RAD51_HUMAN

> <UniProt (SwissProt) Primary ID of Target Chain>
Q06609

> <UniProt (SwissProt) Secondary ID(s) of Target Chain>
B0FXP0 B2R8T6 Q6FHX9 Q6ZNA8 Q9BV60

> <UniProt (SwissProt) Alternative ID(s) of Target Chain>


> <UniProt (TrEMBL) Submitted Name of Target Chain>


> <UniProt (TrEMBL) Entry Name of Target Chain>


> <UniProt (TrEMBL) Primary ID of Target Chain>


> <UniProt (TrEMBL) Secondary ID(s) of Target Chain>


> <UniProt (TrEMBL) Alternative ID(s) of Target Chain>


$$$$
00341001.cdx
  Mrv0541 07212217012D          

 44 47  0  0  0  0            999 V2000
    0.0501    1.7053    0.0000 C   0  0  0  0  0  0  0  0  0  0  0  0
    0.0501    0.8803    0.0000 C   0  0  0  0  0  0  0  0  0  0  0  0
    0.8347    0.6253    0.0000 S   0  0  0  0  0  0  0  0  0  0  0  0
    1.3196    1.2928    0.0000 C   0  0  0  0  0  0  0  0  0  0  0  0
    0.8347    1.9602    0.0000 N   0  0  0  0  0  0  0  0  0  0  0  0
   -0.6644    0.4678    0.0000 C   0  0  0  0  0  0  0  0  0  0  0  0
   -1.3789    0.8803    0.0000 C   0  0  0  0  0  0  0  0  0  0  0  0
   -2.0933    0.4678    0.0000 C   0  0  0  0  0  0  0  0  0  0  0  0
   -2.0933   -0.3572    0.0000 C   0  0  0  0  0  0  0  0  0  0  0  0
   -1.3789   -0.7697    0.0000 C   0  0  0  0  0  0  0  0  0  0  0  0
   -0.6644   -0.3572    0.0000 C   0  0  0  0  0  0  0  0  0  0  0  0
    0.0501   -0.7697    0.0000 S   0  0  0  0  0  0  0  0  0  0  0  0
    0.7646   -1.1822    0.0000 N   0  0  0  0  0  0  0  0  0  0  0  0
    0.4626   -0.0553    0.0000 O   0  0  0  0  0  0  0  0  0  0  0  0
   -0.3624   -1.4842    0.0000 O   0  0  0  0  0  0  0  0  0  0  0  0
    1.4790   -0.7697    0.0000 C   0  0  0  0  0  0  0  0  0  0  0  0
    2.1935   -1.1822    0.0000 C   0  0  0  0  0  0  0  0  0  0  0  0
    1.4790    0.0553    0.0000 C   0  0  0  0  0  0  0  0  0  0  0  0
    2.1935   -0.3572    0.0000 C   0  0  0  0  0  0  0  0  0  0  0  0
   -2.8078   -0.7697    0.0000 N   0  0  0  0  0  0  0  0  0  0  0  0
   -3.5223   -0.3572    0.0000 C   0  0  0  0  0  0  0  0  0  0  0  0
   -4.2367   -0.7697    0.0000 N   0  0  0  0  0  0  0  0  0  0  0  0
   -3.5223    0.4678    0.0000 O   0  0  0  0  0  0  0  0  0  0  0  0
   -4.9512   -0.3572    0.0000 C   0  0  0  0  0  0  0  0  0  0  0  0
   -4.2367   -1.5947    0.0000 C   0  0  0  0  0  0  0  0  0  0  0  0
   -5.6657   -0.7697    0.0000 C   0  0  0  0  0  0  0  0  0  0  0  0
   -6.3802   -0.3572    0.0000 C   0  0  0  0  0  0  0  0  0  0  0  0
   -7.0946   -0.7697    0.0000 C   0  0  0  0  0  0  0  0  0  0  0  0
   -7.0946   -1.5947    0.0000 C   0  0  0  0  0  0  0  0  0  0  0  0
   -6.3802   -2.0072    0.0000 C   0  0  0  0  0  0  0  0  0  0  0  0
   -5.6657   -1.5947    0.0000 C   0  0  0  0  0  0  0  0  0  0  0  0
    2.1446    1.2928    0.0000 C   0  0  0  0  0  0  0  0  0  0  0  0
    2.5571    0.5783    0.0000 C   0  0  0  0  0  0  0  0  0  0  0  0
    3.3821    0.5783    0.0000 C   0  0  0  0  0  0  0  0  0  0  0  0
    3.7946    1.2928    0.0000 C   0  0  0  0  0  0  0  0  0  0  0  0
    3.3821    2.0072    0.0000 C   0  0  0  0  0  0  0  0  0  0  0  0
    2.5571    2.0072    0.0000 C   0  0  0  0  0  0  0  0  0  0  0  0
    4.6196    1.2928    0.0000 N   0  0  0  0  0  0  0  0  0  0  0  0
    5.0321    0.5783    0.0000 C   0  0  0  0  0  0  0  0  0  0  0  0
    5.8571    0.5783    0.0000 N   0  0  0  0  0  0  0  0  0  0  0  0
    4.6196   -0.1362    0.0000 S   0  0  0  0  0  0  0  0  0  0  0  0
    6.2696    1.2928    0.0000 C   0  0  0  0  0  0  0  0  0  0  0  0
    7.0946    1.2928    0.0000 C   0  0  0  0  0  0  0  0  0  0  0  0
    5.8571    2.0072    0.0000 C   0  0  0  0  0  0  0  0  0  0  0  0
  1  2  4  0  0  0  0
  2  3  4  0  0  0  0
  3  4  4  0  0  0  0
  4  5  4  0  0  0  0
  5  1  4  0  0  0  0
  2  6  1  0  0  0  0
  6  7  4  0  0  0  0
  7  8  4  0  0  0  0
  8  9  4  0  0  0  0
  9 10  4  0  0  0  0
 10 11  4  0  0  0  0
 11  6  4  0  0  0  0
 11 12  1  0  0  0  0
 12 13  1  0  0  0  0
 12 14  2  0  0  0  0
 12 15  2  0  0  0  0
 13 16  1  0  0  0  0
 16 17  1  0  0  0  0
 16 18  1  0  0  0  0
 16 19  1  0  0  0  0
  9 20  1  0  0  0  0
 20 21  1  0  0  0  0
 21 22  1  0  0  0  0
 21 23  2  0  0  0  0
 22 24  1  0  0  0  0
 22 25  1  0  0  0  0
 24 26  1  0  0  0  0
 26 27  4  0  0  0  0
 27 28  4  0  0  0  0
 28 29  4  0  0  0  0
 29 30  4  0  0  0  0
 30 31  4  0  0  0  0
 31 26  4  0  0  0  0
  4 32  1  0  0  0  0
 32 33  4  0  0  0  0
 33 34  4  0  0  0  0
 34 35  4  0  0  0  0
 35 36  4  0  0  0  0
 36 37  4  0  0  0  0
 37 32  4  0  0  0  0
 35 38  1  0  0  0  0
 38 39  1  0  0  0  0
 39 40  1  0  0  0  0
 39 41  2  0  0  0  0
 40 42  1  0  0  0  0
 42 43  1  0  0  0  0
 42 44  1  0  0  0  0
M  END
> <From>
www.bindingDB.org

> <BindingDB Reactant_set_id>
1155330

> <Ligand InChI>
InChI=1S/C32H38N6O3S3/c1-21(2)34-30(42)35-24-14-12-23(13-15-24)29-33-19-27(43-29)26-17-16-25(18-28(26)44(40,41)37-32(3,4)5)36-31(39)38(6)20-22-10-8-7-9-11-22/h7-19,21,37H,20H2,1-6H3,(H,36,39)(H2,34,35,42)

> <Ligand InChI Key>
CUWAIPASZGKDBS-UHFFFAOYSA-N

> <BindingDB MonomerID>
546480

> <BindingDB Ligand Name>
US11291655, No M1

> <Target Name>
DNA repair protein RAD51 homolog 1

> <Target Source Organism According to Curator or DataSource>
Homo sapiens

> <Ki (nM)>


> <IC50 (nM)>


> <Kd (nM)>


> <EC50 (nM)>
>10000

> <kon (M-1-s-1)>


> <koff (s-1)>


> <pH>


> <Temp C>


> <Curation/DataSource>
US Patent

> <Article DOI>


> <BindingDB Entry DOI>
10.7270/Q2NG4TV0

> <PMID>


> <PubChem AID>
aid1806421

> <Patent Number>
US11291655

> <Authors>
Castro, AC; McComas, CC; Vacca, J

> <Date of publication>
4/5/2022

> <Date in BindingDB>
7/21/2022

> <Institution>
Cyteir Therapeutics, Inc.

> <Link to Ligand in BindingDB>
http://www.bindingdb.org/bind/chemsearch/marvin/MolStructure.jsp?monomerid=546480

> <Link to Ligand-Target Pair in BindingDB>
http://www.bindingdb.org/jsp/dbsearch/PrimarySearch_ki.jsp?energyterm=kJ/mole&tag=pol&polymerid=4676&target=DNA+repair+protein+RAD51+homolog+1&column=ki&startPg=0&Increment=50&submit=Search

> <Link to Ligand-Target Pair in BindingDB>
http://www.bindingdb.org/jsp/dbsearch/PrimarySearch_ki.jsp?energyterm=kJ/mole&tag=r21&monomerid=546480&enzyme=DNA+repair+protein+RAD51+homolog+1&column=ki&startPg=0&Increment=50&submit=Search

> <Ligand HET ID in PDB>


> <PDB ID(s) for Ligand-Target Complex>


> <PubChem CID of Ligand>
137412060

> <PubChem SID of Ligand>
469681176

> <ChEBI ID of Ligand>


> <ChEMBL ID of Ligand>


> <DrugBank ID of Ligand>


> <IUPHAR_GRAC ID of Ligand>


> <KEGG ID of Ligand>


> <ZINC ID of Ligand>


> <Number of Protein Chains in Target (bigger than 1 implies a multichain complex)>
1

> <BindingDB Target Chain Sequence>
MAMQMQLEANADTSVEEESFGPQPISRLEQCGINANDVKKLEEAGFHTVEAVAYAPKKELINIKGISEAKADKILAEAAKLVPMGFTTATEFHQRRSEIIQITTGSKELDKLLQGGIETGSITEMFGEFRTGKTQICHTLAVTCQLPIDRGGGEGKAMYIDTEGTFRPERLLAVAERYGLSGSDVLDNVAYARAFNTDHQTQLLYQASAMMVESRYALLIVDSATALYRTDYSGRGELSARQMHLARFLRMLLRLADEFGVAVVITNQVVAQVDGAAMFAADPKKPIGGNIIAHASTTRLYLRKGRGETRICKIYDSPCLPEAEAMFAINADGVGDAKD

> <PDB ID(s) of Target Chain>
1N0W,5JZC,5NP7,5NWL,8BQ2,8BR2,8BSC

> <UniProt (SwissProt) Recommended Name of Target Chain>
DNA repair protein RAD51 homolog 1

> <UniProt (SwissProt) Entry Name of Target Chain>
RAD51_HUMAN

> <UniProt (SwissProt) Primary ID of Target Chain>
Q06609

> <UniProt (SwissProt) Secondary ID(s) of Target Chain>
B0FXP0 B2R8T6 Q6FHX9 Q6ZNA8 Q9BV60

> <UniProt (SwissProt) Alternative ID(s) of Target Chain>


> <UniProt (TrEMBL) Submitted Name of Target Chain>


> <UniProt (TrEMBL) Entry Name of Target Chain>


> <UniProt (TrEMBL) Primary ID of Target Chain>


> <UniProt (TrEMBL) Secondary ID(s) of Target Chain>


> <UniProt (TrEMBL) Alternative ID(s) of Target Chain>


$$$$
00342001.cdx
  Mrv0541 07212217012D          

 43 46  0  0  0  0            999 V2000
    0.0501    1.7053    0.0000 C   0  0  0  0  0  0  0  0  0  0  0  0
    0.0501    0.8803    0.0000 C   0  0  0  0  0  0  0  0  0  0  0  0
    0.8347    0.6253    0.0000 S   0  0  0  0  0  0  0  0  0  0  0  0
    1.3196    1.2928    0.0000 C   0  0  0  0  0  0  0  0  0  0  0  0
    0.8347    1.9602    0.0000 N   0  0  0  0  0  0  0  0  0  0  0  0
   -0.6644    0.4678    0.0000 C   0  0  0  0  0  0  0  0  0  0  0  0
   -1.3789    0.8803    0.0000 C   0  0  0  0  0  0  0  0  0  0  0  0
   -2.0933    0.4678    0.0000 C   0  0  0  0  0  0  0  0  0  0  0  0
   -2.0933   -0.3572    0.0000 C   0  0  0  0  0  0  0  0  0  0  0  0
   -1.3789   -0.7697    0.0000 C   0  0  0  0  0  0  0  0  0  0  0  0
   -0.6644   -0.3572    0.0000 C   0  0  0  0  0  0  0  0  0  0  0  0
    0.0501   -0.7697    0.0000 S   0  0  0  0  0  0  0  0  0  0  0  0
    0.7646   -1.1822    0.0000 N   0  0  0  0  0  0  0  0  0  0  0  0
    0.4626   -0.0553    0.0000 O   0  0  0  0  0  0  0  0  0  0  0  0
   -0.3624   -1.4842    0.0000 O   0  0  0  0  0  0  0  0  0  0  0  0
    1.4790   -0.7697    0.0000 C   0  0  0  0  0  0  0  0  0  0  0  0
    2.1935   -1.1822    0.0000 C   0  0  0  0  0  0  0  0  0  0  0  0
    1.4790    0.0553    0.0000 C   0  0  0  0  0  0  0  0  0  0  0  0
    2.1935   -0.3572    0.0000 C   0  0  0  0  0  0  0  0  0  0  0  0
   -2.8078   -0.7697    0.0000 N   0  0  0  0  0  0  0  0  0  0  0  0
   -3.5223   -0.3572    0.0000 C   0  0  0  0  0  0  0  0  0  0  0  0
   -4.2367   -0.7697    0.0000 N   0  0  0  0  0  0  0  0  0  0  0  0
   -3.5223    0.4678    0.0000 O   0  0  0  0  0  0  0  0  0  0  0  0
   -4.9512   -0.3572    0.0000 C   0  0  0  0  0  0  0  0  0  0  0  0
   -5.6657   -0.7697    0.0000 C   0  0  0  0  0  0  0  0  0  0  0  0
   -6.3802   -0.3572    0.0000 C   0  0  0  0  0  0  0  0  0  0  0  0
   -7.0946   -0.7697    0.0000 C   0  0  0  0  0  0  0  0  0  0  0  0
   -7.0946   -1.5947    0.0000 N   0  0  0  0  0  0  0  0  0  0  0  0
   -6.3802   -2.0072    0.0000 C   0  0  0  0  0  0  0  0  0  0  0  0
   -5.6657   -1.5947    0.0000 C   0  0  0  0  0  0  0  0  0  0  0  0
    2.1446    1.2928    0.0000 C   0  0  0  0  0  0  0  0  0  0  0  0
    2.5571    0.5783    0.0000 C   0  0  0  0  0  0  0  0  0  0  0  0
    3.3821    0.5783    0.0000 C   0  0  0  0  0  0  0  0  0  0  0  0
    3.7946    1.2928    0.0000 C   0  0  0  0  0  0  0  0  0  0  0  0
    3.3821    2.0072    0.0000 C   0  0  0  0  0  0  0  0  0  0  0  0
    2.5571    2.0072    0.0000 C   0  0  0  0  0  0  0  0  0  0  0  0
    4.6196    1.2928    0.0000 N   0  0  0  0  0  0  0  0  0  0  0  0
    5.0321    0.5783    0.0000 C   0  0  0  0  0  0  0  0  0  0  0  0
    5.8571    0.5783    0.0000 N   0  0  0  0  0  0  0  0  0  0  0  0
    4.6196   -0.1362    0.0000 S   0  0  0  0  0  0  0  0  0  0  0  0
    6.2696    1.2928    0.0000 C   0  0  0  0  0  0  0  0  0  0  0  0
    7.0946    1.2928    0.0000 C   0  0  0  0  0  0  0  0  0  0  0  0
    5.8571    2.0072    0.0000 C   0  0  0  0  0  0  0  0  0  0  0  0
  1  2  4  0  0  0  0
  2  3  4  0  0  0  0
  3  4  4  0  0  0  0
  4  5  4  0  0  0  0
  5  1  4  0  0  0  0
  2  6  1  0  0  0  0
  6  7  4  0  0  0  0
  7  8  4  0  0  0  0
  8  9  4  0  0  0  0
  9 10  4  0  0  0  0
 10 11  4  0  0  0  0
 11  6  4  0  0  0  0
 11 12  1  0  0  0  0
 12 13  1  0  0  0  0
 12 14  2  0  0  0  0
 12 15  2  0  0  0  0
 13 16  1  0  0  0  0
 16 17  1  0  0  0  0
 16 18  1  0  0  0  0
 16 19  1  0  0  0  0
  9 20  1  0  0  0  0
 20 21  1  0  0  0  0
 21 22  1  0  0  0  0
 21 23  2  0  0  0  0
 22 24  1  0  0  0  0
 24 25  1  0  0  0  0
 25 26  4  0  0  0  0
 26 27  4  0  0  0  0
 27 28  4  0  0  0  0
 28 29  4  0  0  0  0
 29 30  4  0  0  0  0
 30 25  4  0  0  0  0
  4 31  1  0  0  0  0
 31 32  4  0  0  0  0
 32 33  4  0  0  0  0
 33 34  4  0  0  0  0
 34 35  4  0  0  0  0
 35 36  4  0  0  0  0
 36 31  4  0  0  0  0
 34 37  1  0  0  0  0
 37 38  1  0  0  0  0
 38 39  1  0  0  0  0
 38 40  2  0  0  0  0
 39 41  1  0  0  0  0
 41 42  1  0  0  0  0
 41 43  1  0  0  0  0
M  END
> <From>
www.bindingDB.org

> <BindingDB Reactant_set_id>
1155331

> <Ligand InChI>
InChI=1S/C30H35N7O3S3/c1-19(2)34-29(41)36-22-8-6-21(7-9-22)27-32-18-25(42-27)24-11-10-23(16-26(24)43(39,40)37-30(3,4)5)35-28(38)33-17-20-12-14-31-15-13-20/h6-16,18-19,37H,17H2,1-5H3,(H2,33,35,38)(H2,34,36,41)

> <Ligand InChI Key>
SMQIMRQOEFOECI-UHFFFAOYSA-N

> <BindingDB MonomerID>
546481

> <BindingDB Ligand Name>
US11291655, No M2

> <Target Name>
DNA repair protein RAD51 homolog 1

> <Target Source Organism According to Curator or DataSource>
Homo sapiens

> <Ki (nM)>


> <IC50 (nM)>


> <Kd (nM)>


> <EC50 (nM)>
<5000

> <kon (M-1-s-1)>


> <koff (s-1)>


> <pH>


> <Temp C>


> <Curation/DataSource>
US Patent

> <Article DOI>


> <BindingDB Entry DOI>
10.7270/Q2NG4TV0

> <PMID>


> <PubChem AID>
aid1806421

> <Patent Number>
US11291655

> <Authors>
Castro, AC; McComas, CC; Vacca, J

> <Date of publication>
4/5/2022

> <Date in BindingDB>
7/21/2022

> <Institution>
Cyteir Therapeutics, Inc.

> <Link to Ligand in BindingDB>
http://www.bindingdb.org/bind/chemsearch/marvin/MolStructure.jsp?monomerid=546481

> <Link to Ligand-Target Pair in BindingDB>
http://www.bindingdb.org/jsp/dbsearch/PrimarySearch_ki.jsp?energyterm=kJ/mole&tag=pol&polymerid=4676&target=DNA+repair+protein+RAD51+homolog+1&column=ki&startPg=0&Increment=50&submit=Search

> <Link to Ligand-Target Pair in BindingDB>
http://www.bindingdb.org/jsp/dbsearch/PrimarySearch_ki.jsp?energyterm=kJ/mole&tag=r21&monomerid=546481&enzyme=DNA+repair+protein+RAD51+homolog+1&column=ki&startPg=0&Increment=50&submit=Search

> <Ligand HET ID in PDB>


> <PDB ID(s) for Ligand-Target Complex>


> <PubChem CID of Ligand>
137412050

> <PubChem SID of Ligand>
469681177

> <ChEBI ID of Ligand>


> <ChEMBL ID of Ligand>


> <DrugBank ID of Ligand>


> <IUPHAR_GRAC ID of Ligand>


> <KEGG ID of Ligand>


> <ZINC ID of Ligand>


> <Number of Protein Chains in Target (bigger than 1 implies a multichain complex)>
1

> <BindingDB Target Chain Sequence>
MAMQMQLEANADTSVEEESFGPQPISRLEQCGINANDVKKLEEAGFHTVEAVAYAPKKELINIKGISEAKADKILAEAAKLVPMGFTTATEFHQRRSEIIQITTGSKELDKLLQGGIETGSITEMFGEFRTGKTQICHTLAVTCQLPIDRGGGEGKAMYIDTEGTFRPERLLAVAERYGLSGSDVLDNVAYARAFNTDHQTQLLYQASAMMVESRYALLIVDSATALYRTDYSGRGELSARQMHLARFLRMLLRLADEFGVAVVITNQVVAQVDGAAMFAADPKKPIGGNIIAHASTTRLYLRKGRGETRICKIYDSPCLPEAEAMFAINADGVGDAKD

> <PDB ID(s) of Target Chain>
1N0W,5JZC,5NP7,5NWL,8BQ2,8BR2,8BSC

> <UniProt (SwissProt) Recommended Name of Target Chain>
DNA repair protein RAD51 homolog 1

> <UniProt (SwissProt) Entry Name of Target Chain>
RAD51_HUMAN

> <UniProt (SwissProt) Primary ID of Target Chain>
Q06609

> <UniProt (SwissProt) Secondary ID(s) of Target Chain>
B0FXP0 B2R8T6 Q6FHX9 Q6ZNA8 Q9BV60

> <UniProt (SwissProt) Alternative ID(s) of Target Chain>


> <UniProt (TrEMBL) Submitted Name of Target Chain>


> <UniProt (TrEMBL) Entry Name of Target Chain>


> <UniProt (TrEMBL) Primary ID of Target Chain>


> <UniProt (TrEMBL) Secondary ID(s) of Target Chain>


> <UniProt (TrEMBL) Alternative ID(s) of Target Chain>


$$$$
00343001.cdx
  Mrv0541 07212217012D          

 43 46  0  0  0  0            999 V2000
    0.0501    1.7053    0.0000 C   0  0  0  0  0  0  0  0  0  0  0  0
    0.0501    0.8803    0.0000 C   0  0  0  0  0  0  0  0  0  0  0  0
    0.8347    0.6253    0.0000 S   0  0  0  0  0  0  0  0  0  0  0  0
    1.3196    1.2928    0.0000 C   0  0  0  0  0  0  0  0  0  0  0  0
    0.8347    1.9602    0.0000 N   0  0  0  0  0  0  0  0  0  0  0  0
   -0.6644    0.4678    0.0000 C   0  0  0  0  0  0  0  0  0  0  0  0
   -1.3789    0.8803    0.0000 C   0  0  0  0  0  0  0  0  0  0  0  0
   -2.0933    0.4678    0.0000 C   0  0  0  0  0  0  0  0  0  0  0  0
   -2.0933   -0.3572    0.0000 C   0  0  0  0  0  0  0  0  0  0  0  0
   -1.3789   -0.7697    0.0000 C   0  0  0  0  0  0  0  0  0  0  0  0
   -0.6644   -0.3572    0.0000 C   0  0  0  0  0  0  0  0  0  0  0  0
    0.0501   -0.7697    0.0000 S   0  0  0  0  0  0  0  0  0  0  0  0
    0.7646   -1.1822    0.0000 N   0  0  0  0  0  0  0  0  0  0  0  0
    0.4626   -0.0553    0.0000 O   0  0  0  0  0  0  0  0  0  0  0  0
   -0.3624   -1.4842    0.0000 O   0  0  0  0  0  0  0  0  0  0  0  0
    1.4790   -0.7697    0.0000 C   0  0  0  0  0  0  0  0  0  0  0  0
    2.1935   -1.1822    0.0000 C   0  0  0  0  0  0  0  0  0  0  0  0
    1.4790    0.0553    0.0000 C   0  0  0  0  0  0  0  0  0  0  0  0
    2.1935   -0.3572    0.0000 C   0  0  0  0  0  0  0  0  0  0  0  0
   -2.8078   -0.7697    0.0000 N   0  0  0  0  0  0  0  0  0  0  0  0
   -3.5223   -0.3572    0.0000 C   0  0  0  0  0  0  0  0  0  0  0  0
   -4.2367   -0.7697    0.0000 N   0  0  0  0  0  0  0  0  0  0  0  0
   -3.5223    0.4678    0.0000 O   0  0  0  0  0  0  0  0  0  0  0  0
   -4.9512   -0.3572    0.0000 C   0  0  0  0  0  0  0  0  0  0  0  0
   -5.6657   -0.7697    0.0000 C   0  0  0  0  0  0  0  0  0  0  0  0
   -6.3802   -0.3572    0.0000 C   0  0  0  0  0  0  0  0  0  0  0  0
   -7.0946   -0.7697    0.0000 C   0  0  0  0  0  0  0  0  0  0  0  0
   -7.0946   -1.5947    0.0000 C   0  0  0  0  0  0  0  0  0  0  0  0
   -6.3802   -2.0072    0.0000 N   0  0  0  0  0  0  0  0  0  0  0  0
   -5.6657   -1.5947    0.0000 C   0  0  0  0  0  0  0  0  0  0  0  0
    2.1446    1.2928    0.0000 C   0  0  0  0  0  0  0  0  0  0  0  0
    2.5571    0.5783    0.0000 C   0  0  0  0  0  0  0  0  0  0  0  0
    3.3821    0.5783    0.0000 C   0  0  0  0  0  0  0  0  0  0  0  0
    3.7946    1.2928    0.0000 C   0  0  0  0  0  0  0  0  0  0  0  0
    3.3821    2.0072    0.0000 C   0  0  0  0  0  0  0  0  0  0  0  0
    2.5571    2.0072    0.0000 C   0  0  0  0  0  0  0  0  0  0  0  0
    4.6196    1.2928    0.0000 N   0  0  0  0  0  0  0  0  0  0  0  0
    5.0321    0.5783    0.0000 C   0  0  0  0  0  0  0  0  0  0  0  0
    5.8571    0.5783    0.0000 N   0  0  0  0  0  0  0  0  0  0  0  0
    4.6196   -0.1362    0.0000 S   0  0  0  0  0  0  0  0  0  0  0  0
    6.2696    1.2928    0.0000 C   0  0  0  0  0  0  0  0  0  0  0  0
    7.0946    1.2928    0.0000 C   0  0  0  0  0  0  0  0  0  0  0  0
    5.8571    2.0072    0.0000 C   0  0  0  0  0  0  0  0  0  0  0  0
  1  2  4  0  0  0  0
  2  3  4  0  0  0  0
  3  4  4  0  0  0  0
  4  5  4  0  0  0  0
  5  1  4  0  0  0  0
  2  6  1  0  0  0  0
  6  7  4  0  0  0  0
  7  8  4  0  0  0  0
  8  9  4  0  0  0  0
  9 10  4  0  0  0  0
 10 11  4  0  0  0  0
 11  6  4  0  0  0  0
 11 12  1  0  0  0  0
 12 13  1  0  0  0  0
 12 14  2  0  0  0  0
 12 15  2  0  0  0  0
 13 16  1  0  0  0  0
 16 17  1  0  0  0  0
 16 18  1  0  0  0  0
 16 19  1  0  0  0  0
  9 20  1  0  0  0  0
 20 21  1  0  0  0  0
 21 22  1  0  0  0  0
 21 23  2  0  0  0  0
 22 24  1  0  0  0  0
 24 25  1  0  0  0  0
 25 26  4  0  0  0  0
 26 27  4  0  0  0  0
 27 28  4  0  0  0  0
 28 29  4  0  0  0  0
 29 30  4  0  0  0  0
 30 25  4  0  0  0  0
  4 31  1  0  0  0  0
 31 32  4  0  0  0  0
 32 33  4  0  0  0  0
 33 34  4  0  0  0  0
 34 35  4  0  0  0  0
 35 36  4  0  0  0  0
 36 31  4  0  0  0  0
 34 37  1  0  0  0  0
 37 38  1  0  0  0  0
 38 39  1  0  0  0  0
 38 40  2  0  0  0  0
 39 41  1  0  0  0  0
 41 42  1  0  0  0  0
 41 43  1  0  0  0  0
M  END
> <From>
www.bindingDB.org

> <BindingDB Reactant_set_id>
1155332

> <Ligand InChI>
InChI=1S/C30H35N7O3S3/c1-19(2)34-29(41)36-22-10-8-21(9-11-22)27-32-18-25(42-27)24-13-12-23(15-26(24)43(39,40)37-30(3,4)5)35-28(38)33-17-20-7-6-14-31-16-20/h6-16,18-19,37H,17H2,1-5H3,(H2,33,35,38)(H2,34,36,41)

> <Ligand InChI Key>
BFENTXVIOHFJAS-UHFFFAOYSA-N

> <BindingDB MonomerID>
546482

> <BindingDB Ligand Name>
US11291655, No M3

> <Target Name>
DNA repair protein RAD51 homolog 1

> <Target Source Organism According to Curator or DataSource>
Homo sapiens

> <Ki (nM)>


> <IC50 (nM)>


> <Kd (nM)>


> <EC50 (nM)>
<10000

> <kon (M-1-s-1)>


> <koff (s-1)>


> <pH>


> <Temp C>


> <Curation/DataSource>
US Patent

> <Article DOI>


> <BindingDB Entry DOI>
10.7270/Q2NG4TV0

> <PMID>


> <PubChem AID>
aid1806421

> <Patent Number>
US11291655

> <Authors>
Castro, AC; McComas, CC; Vacca, J

> <Date of publication>
4/5/2022

> <Date in BindingDB>
7/21/2022

> <Institution>
Cyteir Therapeutics, Inc.

> <Link to Ligand in BindingDB>
http://www.bindingdb.org/bind/chemsearch/marvin/MolStructure.jsp?monomerid=546482

> <Link to Ligand-Target Pair in BindingDB>
http://www.bindingdb.org/jsp/dbsearch/PrimarySearch_ki.jsp?energyterm=kJ/mole&tag=pol&polymerid=4676&target=DNA+repair+protein+RAD51+homolog+1&column=ki&startPg=0&Increment=50&submit=Search

> <Link to Ligand-Target Pair in BindingDB>
http://www.bindingdb.org/jsp/dbsearch/PrimarySearch_ki.jsp?energyterm=kJ/mole&tag=r21&monomerid=546482&enzyme=DNA+repair+protein+RAD51+homolog+1&column=ki&startPg=0&Increment=50&submit=Search

> <Ligand HET ID in PDB>


> <PDB ID(s) for Ligand-Target Complex>


> <PubChem CID of Ligand>
137412053

> <PubChem SID of Ligand>
469681178

> <ChEBI ID of Ligand>


> <ChEMBL ID of Ligand>


> <DrugBank ID of Ligand>


> <IUPHAR_GRAC ID of Ligand>


> <KEGG ID of Ligand>


> <ZINC ID of Ligand>


> <Number of Protein Chains in Target (bigger than 1 implies a multichain complex)>
1

> <BindingDB Target Chain Sequence>
MAMQMQLEANADTSVEEESFGPQPISRLEQCGINANDVKKLEEAGFHTVEAVAYAPKKELINIKGISEAKADKILAEAAKLVPMGFTTATEFHQRRSEIIQITTGSKELDKLLQGGIETGSITEMFGEFRTGKTQICHTLAVTCQLPIDRGGGEGKAMYIDTEGTFRPERLLAVAERYGLSGSDVLDNVAYARAFNTDHQTQLLYQASAMMVESRYALLIVDSATALYRTDYSGRGELSARQMHLARFLRMLLRLADEFGVAVVITNQVVAQVDGAAMFAADPKKPIGGNIIAHASTTRLYLRKGRGETRICKIYDSPCLPEAEAMFAINADGVGDAKD

> <PDB ID(s) of Target Chain>
1N0W,5JZC,5NP7,5NWL,8BQ2,8BR2,8BSC

> <UniProt (SwissProt) Recommended Name of Target Chain>
DNA repair protein RAD51 homolog 1

> <UniProt (SwissProt) Entry Name of Target Chain>
RAD51_HUMAN

> <UniProt (SwissProt) Primary ID of Target Chain>
Q06609

> <UniProt (SwissProt) Secondary ID(s) of Target Chain>
B0FXP0 B2R8T6 Q6FHX9 Q6ZNA8 Q9BV60

> <UniProt (SwissProt) Alternative ID(s) of Target Chain>


> <UniProt (TrEMBL) Submitted Name of Target Chain>


> <UniProt (TrEMBL) Entry Name of Target Chain>


> <UniProt (TrEMBL) Primary ID of Target Chain>


> <UniProt (TrEMBL) Secondary ID(s) of Target Chain>


> <UniProt (TrEMBL) Alternative ID(s) of Target Chain>


$$$$
00344001.cdx
  Mrv0541 07212217012D          

 43 46  0  0  0  0            999 V2000
    0.0501    1.7053    0.0000 C   0  0  0  0  0  0  0  0  0  0  0  0
    0.0501    0.8803    0.0000 C   0  0  0  0  0  0  0  0  0  0  0  0
    0.8347    0.6253    0.0000 S   0  0  0  0  0  0  0  0  0  0  0  0
    1.3196    1.2928    0.0000 C   0  0  0  0  0  0  0  0  0  0  0  0
    0.8347    1.9602    0.0000 N   0  0  0  0  0  0  0  0  0  0  0  0
   -0.6644    0.4678    0.0000 C   0  0  0  0  0  0  0  0  0  0  0  0
   -1.3789    0.8803    0.0000 C   0  0  0  0  0  0  0  0  0  0  0  0
   -2.0933    0.4678    0.0000 C   0  0  0  0  0  0  0  0  0  0  0  0
   -2.0933   -0.3572    0.0000 C   0  0  0  0  0  0  0  0  0  0  0  0
   -1.3789   -0.7697    0.0000 C   0  0  0  0  0  0  0  0  0  0  0  0
   -0.6644   -0.3572    0.0000 C   0  0  0  0  0  0  0  0  0  0  0  0
    0.0501   -0.7697    0.0000 S   0  0  0  0  0  0  0  0  0  0  0  0
    0.7646   -1.1822    0.0000 N   0  0  0  0  0  0  0  0  0  0  0  0
    0.4626   -0.0553    0.0000 O   0  0  0  0  0  0  0  0  0  0  0  0
   -0.3624   -1.4842    0.0000 O   0  0  0  0  0  0  0  0  0  0  0  0
    1.4790   -0.7697    0.0000 C   0  0  0  0  0  0  0  0  0  0  0  0
    2.1935   -1.1822    0.0000 C   0  0  0  0  0  0  0  0  0  0  0  0
    1.4790    0.0553    0.0000 C   0  0  0  0  0  0  0  0  0  0  0  0
    2.1935   -0.3572    0.0000 C   0  0  0  0  0  0  0  0  0  0  0  0
   -2.8078   -0.7697    0.0000 N   0  0  0  0  0  0  0  0  0  0  0  0
   -3.5223   -0.3572    0.0000 C   0  0  0  0  0  0  0  0  0  0  0  0
   -4.2367   -0.7697    0.0000 N   0  0  0  0  0  0  0  0  0  0  0  0
   -3.5223    0.4678    0.0000 O   0  0  0  0  0  0  0  0  0  0  0  0
   -4.9512   -0.3572    0.0000 C   0  0  0  0  0  0  0  0  0  0  0  0
   -5.6657   -0.7697    0.0000 C   0  0  0  0  0  0  0  0  0  0  0  0
   -6.3802   -0.3572    0.0000 C   0  0  0  0  0  0  0  0  0  0  0  0
   -7.0946   -0.7697    0.0000 C   0  0  0  0  0  0  0  0  0  0  0  0
   -7.0946   -1.5947    0.0000 C   0  0  0  0  0  0  0  0  0  0  0  0
   -6.3802   -2.0072    0.0000 C   0  0  0  0  0  0  0  0  0  0  0  0
   -5.6657   -1.5947    0.0000 N   0  0  0  0  0  0  0  0  0  0  0  0
    2.1446    1.2928    0.0000 C   0  0  0  0  0  0  0  0  0  0  0  0
    2.5571    0.5783    0.0000 C   0  0  0  0  0  0  0  0  0  0  0  0
    3.3821    0.5783    0.0000 C   0  0  0  0  0  0  0  0  0  0  0  0
    3.7946    1.2928    0.0000 C   0  0  0  0  0  0  0  0  0  0  0  0
    3.3821    2.0072    0.0000 C   0  0  0  0  0  0  0  0  0  0  0  0
    2.5571    2.0072    0.0000 C   0  0  0  0  0  0  0  0  0  0  0  0
    4.6196    1.2928    0.0000 N   0  0  0  0  0  0  0  0  0  0  0  0
    5.0321    0.5783    0.0000 C   0  0  0  0  0  0  0  0  0  0  0  0
    5.8571    0.5783    0.0000 N   0  0  0  0  0  0  0  0  0  0  0  0
    4.6196   -0.1362    0.0000 S   0  0  0  0  0  0  0  0  0  0  0  0
    6.2696    1.2928    0.0000 C   0  0  0  0  0  0  0  0  0  0  0  0
    7.0946    1.2928    0.0000 C   0  0  0  0  0  0  0  0  0  0  0  0
    5.8571    2.0072    0.0000 C   0  0  0  0  0  0  0  0  0  0  0  0
  1  2  4  0  0  0  0
  2  3  4  0  0  0  0
  3  4  4  0  0  0  0
  4  5  4  0  0  0  0
  5  1  4  0  0  0  0
  2  6  1  0  0  0  0
  6  7  4  0  0  0  0
  7  8  4  0  0  0  0
  8  9  4  0  0  0  0
  9 10  4  0  0  0  0
 10 11  4  0  0  0  0
 11  6  4  0  0  0  0
 11 12  1  0  0  0  0
 12 13  1  0  0  0  0
 12 14  2  0  0  0  0
 12 15  2  0  0  0  0
 13 16  1  0  0  0  0
 16 17  1  0  0  0  0
 16 18  1  0  0  0  0
 16 19  1  0  0  0  0
  9 20  1  0  0  0  0
 20 21  1  0  0  0  0
 21 22  1  0  0  0  0
 21 23  2  0  0  0  0
 22 24  1  0  0  0  0
 24 25  1  0  0  0  0
 25 26  4  0  0  0  0
 26 27  4  0  0  0  0
 27 28  4  0  0  0  0
 28 29  4  0  0  0  0
 29 30  4  0  0  0  0
 30 25  4  0  0  0  0
  4 31  1  0  0  0  0
 31 32  4  0  0  0  0
 32 33  4  0  0  0  0
 33 34  4  0  0  0  0
 34 35  4  0  0  0  0
 35 36  4  0  0  0  0
 36 31  4  0  0  0  0
 34 37  1  0  0  0  0
 37 38  1  0  0  0  0
 38 39  1  0  0  0  0
 38 40  2  0  0  0  0
 39 41  1  0  0  0  0
 41 42  1  0  0  0  0
 41 43  1  0  0  0  0
M  END
> <From>
www.bindingDB.org

> <BindingDB Reactant_set_id>
1155333

> <Ligand InChI>
InChI=1S/C30H35N7O3S3/c1-19(2)34-29(41)36-21-11-9-20(10-12-21)27-32-18-25(42-27)24-14-13-22(16-26(24)43(39,40)37-30(3,4)5)35-28(38)33-17-23-8-6-7-15-31-23/h6-16,18-19,37H,17H2,1-5H3,(H2,33,35,38)(H2,34,36,41)

> <Ligand InChI Key>
IHAZHRVGSZRWMZ-UHFFFAOYSA-N

> <BindingDB MonomerID>
546483

> <BindingDB Ligand Name>
US11291655, No M4

> <Target Name>
DNA repair protein RAD51 homolog 1

> <Target Source Organism According to Curator or DataSource>
Homo sapiens

> <Ki (nM)>


> <IC50 (nM)>


> <Kd (nM)>


> <EC50 (nM)>
<10000

> <kon (M-1-s-1)>


> <koff (s-1)>


> <pH>


> <Temp C>


> <Curation/DataSource>
US Patent

> <Article DOI>


> <BindingDB Entry DOI>
10.7270/Q2NG4TV0

> <PMID>


> <PubChem AID>
aid1806421

> <Patent Number>
US11291655

> <Authors>
Castro, AC; McComas, CC; Vacca, J

> <Date of publication>
4/5/2022

> <Date in BindingDB>
7/21/2022

> <Institution>
Cyteir Therapeutics, Inc.

> <Link to Ligand in BindingDB>
http://www.bindingdb.org/bind/chemsearch/marvin/MolStructure.jsp?monomerid=546483

> <Link to Ligand-Target Pair in BindingDB>
http://www.bindingdb.org/jsp/dbsearch/PrimarySearch_ki.jsp?energyterm=kJ/mole&tag=pol&polymerid=4676&target=DNA+repair+protein+RAD51+homolog+1&column=ki&startPg=0&Increment=50&submit=Search

> <Link to Ligand-Target Pair in BindingDB>
http://www.bindingdb.org/jsp/dbsearch/PrimarySearch_ki.jsp?energyterm=kJ/mole&tag=r21&monomerid=546483&enzyme=DNA+repair+protein+RAD51+homolog+1&column=ki&startPg=0&Increment=50&submit=Search

> <Ligand HET ID in PDB>


> <PDB ID(s) for Ligand-Target Complex>


> <PubChem CID of Ligand>
137412051

> <PubChem SID of Ligand>
469681179

> <ChEBI ID of Ligand>


> <ChEMBL ID of Ligand>


> <DrugBank ID of Ligand>


> <IUPHAR_GRAC ID of Ligand>


> <KEGG ID of Ligand>


> <ZINC ID of Ligand>


> <Number of Protein Chains in Target (bigger than 1 implies a multichain complex)>
1

> <BindingDB Target Chain Sequence>
MAMQMQLEANADTSVEEESFGPQPISRLEQCGINANDVKKLEEAGFHTVEAVAYAPKKELINIKGISEAKADKILAEAAKLVPMGFTTATEFHQRRSEIIQITTGSKELDKLLQGGIETGSITEMFGEFRTGKTQICHTLAVTCQLPIDRGGGEGKAMYIDTEGTFRPERLLAVAERYGLSGSDVLDNVAYARAFNTDHQTQLLYQASAMMVESRYALLIVDSATALYRTDYSGRGELSARQMHLARFLRMLLRLADEFGVAVVITNQVVAQVDGAAMFAADPKKPIGGNIIAHASTTRLYLRKGRGETRICKIYDSPCLPEAEAMFAINADGVGDAKD

> <PDB ID(s) of Target Chain>
1N0W,5JZC,5NP7,5NWL,8BQ2,8BR2,8BSC

> <UniProt (SwissProt) Recommended Name of Target Chain>
DNA repair protein RAD51 homolog 1

> <UniProt (SwissProt) Entry Name of Target Chain>
RAD51_HUMAN

> <UniProt (SwissProt) Primary ID of Target Chain>
Q06609

> <UniProt (SwissProt) Secondary ID(s) of Target Chain>
B0FXP0 B2R8T6 Q6FHX9 Q6ZNA8 Q9BV60

> <UniProt (SwissProt) Alternative ID(s) of Target Chain>


> <UniProt (TrEMBL) Submitted Name of Target Chain>


> <UniProt (TrEMBL) Entry Name of Target Chain>


> <UniProt (TrEMBL) Primary ID of Target Chain>


> <UniProt (TrEMBL) Secondary ID(s) of Target Chain>


> <UniProt (TrEMBL) Alternative ID(s) of Target Chain>


$$$$
00345001.cdx
  Mrv0541 07212217012D          

 43 46  0  0  0  0            999 V2000
    0.0501    1.7053    0.0000 C   0  0  0  0  0  0  0  0  0  0  0  0
    0.0501    0.8803    0.0000 C   0  0  0  0  0  0  0  0  0  0  0  0
    0.8347    0.6253    0.0000 S   0  0  0  0  0  0  0  0  0  0  0  0
    1.3196    1.2928    0.0000 C   0  0  0  0  0  0  0  0  0  0  0  0
    0.8347    1.9602    0.0000 N   0  0  0  0  0  0  0  0  0  0  0  0
   -0.6644    0.4678    0.0000 C   0  0  0  0  0  0  0  0  0  0  0  0
   -1.3789    0.8803    0.0000 C   0  0  0  0  0  0  0  0  0  0  0  0
   -2.0933    0.4678    0.0000 C   0  0  0  0  0  0  0  0  0  0  0  0
   -2.0933   -0.3572    0.0000 C   0  0  0  0  0  0  0  0  0  0  0  0
   -1.3789   -0.7697    0.0000 C   0  0  0  0  0  0  0  0  0  0  0  0
   -0.6644   -0.3572    0.0000 C   0  0  0  0  0  0  0  0  0  0  0  0
    0.0501   -0.7697    0.0000 S   0  0  0  0  0  0  0  0  0  0  0  0
    0.7646   -1.1822    0.0000 N   0  0  0  0  0  0  0  0  0  0  0  0
    0.4626   -0.0553    0.0000 O   0  0  0  0  0  0  0  0  0  0  0  0
   -0.3624   -1.4842    0.0000 O   0  0  0  0  0  0  0  0  0  0  0  0
    1.4790   -0.7697    0.0000 C   0  0  0  0  0  0  0  0  0  0  0  0
    2.1935   -1.1822    0.0000 C   0  0  0  0  0  0  0  0  0  0  0  0
    1.4790    0.0553    0.0000 C   0  0  0  0  0  0  0  0  0  0  0  0
    2.1935   -0.3572    0.0000 C   0  0  0  0  0  0  0  0  0  0  0  0
   -2.8078   -0.7697    0.0000 N   0  0  0  0  0  0  0  0  0  0  0  0
   -3.5223   -0.3572    0.0000 C   0  0  0  0  0  0  0  0  0  0  0  0
   -4.2367   -0.7697    0.0000 N   0  0  0  0  0  0  0  0  0  0  0  0
   -3.5223    0.4678    0.0000 O   0  0  0  0  0  0  0  0  0  0  0  0
   -4.9512   -0.3572    0.0000 C   0  0  0  0  0  0  0  0  0  0  0  0
   -5.6657   -0.7697    0.0000 C   0  0  0  0  0  0  0  0  0  0  0  0
   -6.3802   -0.3572    0.0000 C   0  0  0  0  0  0  0  0  0  0  0  0
   -7.0946   -0.7697    0.0000 N   0  0  0  0  0  0  0  0  0  0  0  0
   -7.0946   -1.5947    0.0000 C   0  0  0  0  0  0  0  0  0  0  0  0
   -6.3802   -2.0072    0.0000 N   0  0  0  0  0  0  0  0  0  0  0  0
   -5.6657   -1.5947    0.0000 C   0  0  0  0  0  0  0  0  0  0  0  0
    2.1446    1.2928    0.0000 C   0  0  0  0  0  0  0  0  0  0  0  0
    2.5571    0.5783    0.0000 C   0  0  0  0  0  0  0  0  0  0  0  0
    3.3821    0.5783    0.0000 C   0  0  0  0  0  0  0  0  0  0  0  0
    3.7946    1.2928    0.0000 C   0  0  0  0  0  0  0  0  0  0  0  0
    3.3821    2.0072    0.0000 C   0  0  0  0  0  0  0  0  0  0  0  0
    2.5571    2.0072    0.0000 C   0  0  0  0  0  0  0  0  0  0  0  0
    4.6196    1.2928    0.0000 N   0  0  0  0  0  0  0  0  0  0  0  0
    5.0321    0.5783    0.0000 C   0  0  0  0  0  0  0  0  0  0  0  0
    5.8571    0.5783    0.0000 N   0  0  0  0  0  0  0  0  0  0  0  0
    4.6196   -0.1362    0.0000 S   0  0  0  0  0  0  0  0  0  0  0  0
    6.2696    1.2928    0.0000 C   0  0  0  0  0  0  0  0  0  0  0  0
    7.0946    1.2928    0.0000 C   0  0  0  0  0  0  0  0  0  0  0  0
    5.8571    2.0072    0.0000 C   0  0  0  0  0  0  0  0  0  0  0  0
  1  2  4  0  0  0  0
  2  3  4  0  0  0  0
  3  4  4  0  0  0  0
  4  5  4  0  0  0  0
  5  1  4  0  0  0  0
  2  6  1  0  0  0  0
  6  7  4  0  0  0  0
  7  8  4  0  0  0  0
  8  9  4  0  0  0  0
  9 10  4  0  0  0  0
 10 11  4  0  0  0  0
 11  6  4  0  0  0  0
 11 12  1  0  0  0  0
 12 13  1  0  0  0  0
 12 14  2  0  0  0  0
 12 15  2  0  0  0  0
 13 16  1  0  0  0  0
 16 17  1  0  0  0  0
 16 18  1  0  0  0  0
 16 19  1  0  0  0  0
  9 20  1  0  0  0  0
 20 21  1  0  0  0  0
 21 22  1  0  0  0  0
 21 23  2  0  0  0  0
 22 24  1  0  0  0  0
 24 25  1  0  0  0  0
 25 26  4  0  0  0  0
 26 27  4  0  0  0  0
 27 28  4  0  0  0  0
 28 29  4  0  0  0  0
 29 30  4  0  0  0  0
 30 25  4  0  0  0  0
  4 31  1  0  0  0  0
 31 32  4  0  0  0  0
 32 33  4  0  0  0  0
 33 34  4  0  0  0  0
 34 35  4  0  0  0  0
 35 36  4  0  0  0  0
 36 31  4  0  0  0  0
 34 37  1  0  0  0  0
 37 38  1  0  0  0  0
 38 39  1  0  0  0  0
 38 40  2  0  0  0  0
 39 41  1  0  0  0  0
 41 42  1  0  0  0  0
 41 43  1  0  0  0  0
M  END
> <From>
www.bindingDB.org

> <BindingDB Reactant_set_id>
1155334

> <Ligand InChI>
InChI=1S/C29H34N8O3S3/c1-18(2)34-28(41)36-21-8-6-20(7-9-21)26-32-16-24(42-26)23-11-10-22(12-25(23)43(39,40)37-29(3,4)5)35-27(38)33-15-19-13-30-17-31-14-19/h6-14,16-18,37H,15H2,1-5H3,(H2,33,35,38)(H2,34,36,41)

> <Ligand InChI Key>
DBQYATUYWJRAOR-UHFFFAOYSA-N

> <BindingDB MonomerID>
546484

> <BindingDB Ligand Name>
US11291655, No M5

> <Target Name>
DNA repair protein RAD51 homolog 1

> <Target Source Organism According to Curator or DataSource>
Homo sapiens

> <Ki (nM)>


> <IC50 (nM)>


> <Kd (nM)>


> <EC50 (nM)>
>10000

> <kon (M-1-s-1)>


> <koff (s-1)>


> <pH>


> <Temp C>


> <Curation/DataSource>
US Patent

> <Article DOI>


> <BindingDB Entry DOI>
10.7270/Q2NG4TV0

> <PMID>


> <PubChem AID>
aid1806421

> <Patent Number>
US11291655

> <Authors>
Castro, AC; McComas, CC; Vacca, J

> <Date of publication>
4/5/2022

> <Date in BindingDB>
7/21/2022

> <Institution>
Cyteir Therapeutics, Inc.

> <Link to Ligand in BindingDB>
http://www.bindingdb.org/bind/chemsearch/marvin/MolStructure.jsp?monomerid=546484

> <Link to Ligand-Target Pair in BindingDB>
http://www.bindingdb.org/jsp/dbsearch/PrimarySearch_ki.jsp?energyterm=kJ/mole&tag=pol&polymerid=4676&target=DNA+repair+protein+RAD51+homolog+1&column=ki&startPg=0&Increment=50&submit=Search

> <Link to Ligand-Target Pair in BindingDB>
http://www.bindingdb.org/jsp/dbsearch/PrimarySearch_ki.jsp?energyterm=kJ/mole&tag=r21&monomerid=546484&enzyme=DNA+repair+protein+RAD51+homolog+1&column=ki&startPg=0&Increment=50&submit=Search

> <Ligand HET ID in PDB>


> <PDB ID(s) for Ligand-Target Complex>


> <PubChem CID of Ligand>
137411746

> <PubChem SID of Ligand>
469681180

> <ChEBI ID of Ligand>


> <ChEMBL ID of Ligand>


> <DrugBank ID of Ligand>


> <IUPHAR_GRAC ID of Ligand>


> <KEGG ID of Ligand>


> <ZINC ID of Ligand>


> <Number of Protein Chains in Target (bigger than 1 implies a multichain complex)>
1

> <BindingDB Target Chain Sequence>
MAMQMQLEANADTSVEEESFGPQPISRLEQCGINANDVKKLEEAGFHTVEAVAYAPKKELINIKGISEAKADKILAEAAKLVPMGFTTATEFHQRRSEIIQITTGSKELDKLLQGGIETGSITEMFGEFRTGKTQICHTLAVTCQLPIDRGGGEGKAMYIDTEGTFRPERLLAVAERYGLSGSDVLDNVAYARAFNTDHQTQLLYQASAMMVESRYALLIVDSATALYRTDYSGRGELSARQMHLARFLRMLLRLADEFGVAVVITNQVVAQVDGAAMFAADPKKPIGGNIIAHASTTRLYLRKGRGETRICKIYDSPCLPEAEAMFAINADGVGDAKD

> <PDB ID(s) of Target Chain>
1N0W,5JZC,5NP7,5NWL,8BQ2,8BR2,8BSC

> <UniProt (SwissProt) Recommended Name of Target Chain>
DNA repair protein RAD51 homolog 1

> <UniProt (SwissProt) Entry Name of Target Chain>
RAD51_HUMAN

> <UniProt (SwissProt) Primary ID of Target Chain>
Q06609

> <UniProt (SwissProt) Secondary ID(s) of Target Chain>
B0FXP0 B2R8T6 Q6FHX9 Q6ZNA8 Q9BV60

> <UniProt (SwissProt) Alternative ID(s) of Target Chain>


> <UniProt (TrEMBL) Submitted Name of Target Chain>


> <UniProt (TrEMBL) Entry Name of Target Chain>


> <UniProt (TrEMBL) Primary ID of Target Chain>


> <UniProt (TrEMBL) Secondary ID(s) of Target Chain>


> <UniProt (TrEMBL) Alternative ID(s) of Target Chain>


$$$$
00346001.cdx
  Mrv0541 07212217012D          

 42 45  0  0  0  0            999 V2000
    0.0031    1.4788    0.0000 C   0  0  0  0  0  0  0  0  0  0  0  0
    0.0031    0.6538    0.0000 C   0  0  0  0  0  0  0  0  0  0  0  0
    0.7877    0.3989    0.0000 S   0  0  0  0  0  0  0  0  0  0  0  0
    1.2726    1.0663    0.0000 C   0  0  0  0  0  0  0  0  0  0  0  0
    0.7877    1.7338    0.0000 N   0  0  0  0  0  0  0  0  0  0  0  0
   -0.7114    0.2413    0.0000 C   0  0  0  0  0  0  0  0  0  0  0  0
   -1.4259    0.6538    0.0000 C   0  0  0  0  0  0  0  0  0  0  0  0
   -2.1404    0.2413    0.0000 C   0  0  0  0  0  0  0  0  0  0  0  0
   -2.1404   -0.5837    0.0000 C   0  0  0  0  0  0  0  0  0  0  0  0
   -1.4259   -0.9962    0.0000 C   0  0  0  0  0  0  0  0  0  0  0  0
   -0.7114   -0.5837    0.0000 C   0  0  0  0  0  0  0  0  0  0  0  0
    0.0031   -0.9962    0.0000 S   0  0  0  0  0  0  0  0  0  0  0  0
    0.7175   -1.4087    0.0000 N   0  0  0  0  0  0  0  0  0  0  0  0
    0.4156   -0.2817    0.0000 O   0  0  0  0  0  0  0  0  0  0  0  0
   -0.4094   -1.7106    0.0000 O   0  0  0  0  0  0  0  0  0  0  0  0
    1.4320   -0.9962    0.0000 C   0  0  0  0  0  0  0  0  0  0  0  0
    2.1465   -1.4087    0.0000 C   0  0  0  0  0  0  0  0  0  0  0  0
    1.4320   -0.1712    0.0000 C   0  0  0  0  0  0  0  0  0  0  0  0
    2.1465   -0.5837    0.0000 C   0  0  0  0  0  0  0  0  0  0  0  0
   -2.8548   -0.9962    0.0000 N   0  0  0  0  0  0  0  0  0  0  0  0
   -3.5693   -0.5837    0.0000 C   0  0  0  0  0  0  0  0  0  0  0  0
   -4.2838   -0.9962    0.0000 N   0  0  0  0  0  0  0  0  0  0  0  0
   -3.5693    0.2413    0.0000 O   0  0  0  0  0  0  0  0  0  0  0  0
   -4.9982   -0.5837    0.0000 C   0  0  0  0  0  0  0  0  0  0  0  0
    2.0976    1.0663    0.0000 C   0  0  0  0  0  0  0  0  0  0  0  0
    2.5101    0.3519    0.0000 C   0  0  0  0  0  0  0  0  0  0  0  0
    3.3351    0.3519    0.0000 C   0  0  0  0  0  0  0  0  0  0  0  0
    3.7476    1.0663    0.0000 C   0  0  0  0  0  0  0  0  0  0  0  0
    3.3351    1.7808    0.0000 C   0  0  0  0  0  0  0  0  0  0  0  0
    2.5101    1.7808    0.0000 C   0  0  0  0  0  0  0  0  0  0  0  0
    4.5726    1.0663    0.0000 N   0  0  0  0  0  0  0  0  0  0  0  0
    4.9851    0.3519    0.0000 C   0  0  0  0  0  0  0  0  0  0  0  0
    5.8101    0.3519    0.0000 N   0  0  0  0  0  0  0  0  0  0  0  0
    4.5726   -0.3626    0.0000 S   0  0  0  0  0  0  0  0  0  0  0  0
    6.2226    1.0663    0.0000 C   0  0  0  0  0  0  0  0  0  0  0  0
    7.0476    1.0663    0.0000 C   0  0  0  0  0  0  0  0  0  0  0  0
    5.8101    1.7808    0.0000 C   0  0  0  0  0  0  0  0  0  0  0  0
   -6.7927   -1.7808    0.0000 C   0  0  0  0  0  0  0  0  0  0  0  0
   -5.9677   -1.7808    0.0000 S   0  0  0  0  0  0  0  0  0  0  0  0
   -5.7127   -0.9962    0.0000 C   0  0  0  0  0  0  0  0  0  0  0  0
   -6.3802   -0.5113    0.0000 N   0  0  0  0  0  0  0  0  0  0  0  0
   -7.0476   -0.9962    0.0000 C   0  0  0  0  0  0  0  0  0  0  0  0
  1  2  4  0  0  0  0
  2  3  4  0  0  0  0
  3  4  4  0  0  0  0
  4  5  4  0  0  0  0
  5  1  4  0  0  0  0
  2  6  1  0  0  0  0
  6  7  4  0  0  0  0
  7  8  4  0  0  0  0
  8  9  4  0  0  0  0
  9 10  4  0  0  0  0
 10 11  4  0  0  0  0
 11  6  4  0  0  0  0
 11 12  1  0  0  0  0
 12 13  1  0  0  0  0
 12 14  2  0  0  0  0
 12 15  2  0  0  0  0
 13 16  1  0  0  0  0
 16 17  1  0  0  0  0
 16 18  1  0  0  0  0
 16 19  1  0  0  0  0
  9 20  1  0  0  0  0
 20 21  1  0  0  0  0
 21 22  1  0  0  0  0
 21 23  2  0  0  0  0
 22 24  1  0  0  0  0
 24 40  1  0  0  0  0
  4 25  1  0  0  0  0
 25 26  4  0  0  0  0
 26 27  4  0  0  0  0
 27 28  4  0  0  0  0
 28 29  4  0  0  0  0
 29 30  4  0  0  0  0
 30 25  4  0  0  0  0
 28 31  1  0  0  0  0
 31 32  1  0  0  0  0
 32 33  1  0  0  0  0
 32 34  2  0  0  0  0
 33 35  1  0  0  0  0
 35 36  1  0  0  0  0
 35 37  1  0  0  0  0
 38 39  4  0  0  0  0
 39 40  4  0  0  0  0
 40 41  4  0  0  0  0
 41 42  4  0  0  0  0
 42 38  4  0  0  0  0
M  END
> <From>
www.bindingDB.org

> <BindingDB Reactant_set_id>
1155335

> <Ligand InChI>
InChI=1S/C28H33N7O3S4/c1-17(2)32-27(39)34-19-8-6-18(7-9-19)25-30-15-22(41-25)21-11-10-20(14-23(21)42(37,38)35-28(3,4)5)33-26(36)31-16-24-29-12-13-40-24/h6-15,17,35H,16H2,1-5H3,(H2,31,33,36)(H2,32,34,39)

> <Ligand InChI Key>
BQWVKOKPSXMZKB-UHFFFAOYSA-N

> <BindingDB MonomerID>
546485

> <BindingDB Ligand Name>
US11291655, No M6

> <Target Name>
DNA repair protein RAD51 homolog 1

> <Target Source Organism According to Curator or DataSource>
Homo sapiens

> <Ki (nM)>


> <IC50 (nM)>


> <Kd (nM)>


> <EC50 (nM)>
>10000

> <kon (M-1-s-1)>


> <koff (s-1)>


> <pH>


> <Temp C>


> <Curation/DataSource>
US Patent

> <Article DOI>


> <BindingDB Entry DOI>
10.7270/Q2NG4TV0

> <PMID>


> <PubChem AID>
aid1806421

> <Patent Number>
US11291655

> <Authors>
Castro, AC; McComas, CC; Vacca, J

> <Date of publication>
4/5/2022

> <Date in BindingDB>
7/21/2022

> <Institution>
Cyteir Therapeutics, Inc.

> <Link to Ligand in BindingDB>
http://www.bindingdb.org/bind/chemsearch/marvin/MolStructure.jsp?monomerid=546485

> <Link to Ligand-Target Pair in BindingDB>
http://www.bindingdb.org/jsp/dbsearch/PrimarySearch_ki.jsp?energyterm=kJ/mole&tag=pol&polymerid=4676&target=DNA+repair+protein+RAD51+homolog+1&column=ki&startPg=0&Increment=50&submit=Search

> <Link to Ligand-Target Pair in BindingDB>
http://www.bindingdb.org/jsp/dbsearch/PrimarySearch_ki.jsp?energyterm=kJ/mole&tag=r21&monomerid=546485&enzyme=DNA+repair+protein+RAD51+homolog+1&column=ki&startPg=0&Increment=50&submit=Search

> <Ligand HET ID in PDB>


> <PDB ID(s) for Ligand-Target Complex>


> <PubChem CID of Ligand>
137411982

> <PubChem SID of Ligand>
469681181

> <ChEBI ID of Ligand>


> <ChEMBL ID of Ligand>


> <DrugBank ID of Ligand>


> <IUPHAR_GRAC ID of Ligand>


> <KEGG ID of Ligand>


> <ZINC ID of Ligand>


> <Number of Protein Chains in Target (bigger than 1 implies a multichain complex)>
1

> <BindingDB Target Chain Sequence>
MAMQMQLEANADTSVEEESFGPQPISRLEQCGINANDVKKLEEAGFHTVEAVAYAPKKELINIKGISEAKADKILAEAAKLVPMGFTTATEFHQRRSEIIQITTGSKELDKLLQGGIETGSITEMFGEFRTGKTQICHTLAVTCQLPIDRGGGEGKAMYIDTEGTFRPERLLAVAERYGLSGSDVLDNVAYARAFNTDHQTQLLYQASAMMVESRYALLIVDSATALYRTDYSGRGELSARQMHLARFLRMLLRLADEFGVAVVITNQVVAQVDGAAMFAADPKKPIGGNIIAHASTTRLYLRKGRGETRICKIYDSPCLPEAEAMFAINADGVGDAKD

> <PDB ID(s) of Target Chain>
1N0W,5JZC,5NP7,5NWL,8BQ2,8BR2,8BSC

> <UniProt (SwissProt) Recommended Name of Target Chain>
DNA repair protein RAD51 homolog 1

> <UniProt (SwissProt) Entry Name of Target Chain>
RAD51_HUMAN

> <UniProt (SwissProt) Primary ID of Target Chain>
Q06609

> <UniProt (SwissProt) Secondary ID(s) of Target Chain>
B0FXP0 B2R8T6 Q6FHX9 Q6ZNA8 Q9BV60

> <UniProt (SwissProt) Alternative ID(s) of Target Chain>


> <UniProt (TrEMBL) Submitted Name of Target Chain>


> <UniProt (TrEMBL) Entry Name of Target Chain>


> <UniProt (TrEMBL) Primary ID of Target Chain>


> <UniProt (TrEMBL) Secondary ID(s) of Target Chain>


> <UniProt (TrEMBL) Alternative ID(s) of Target Chain>


$$$$
00347001.cdx
  Mrv0541 07212217012D          

 44 47  0  0  0  0            999 V2000
    1.3943    2.0372    0.0000 N   0  0  0  0  0  0  0  0  0  0  0  0
    0.5693    2.0372    0.0000 C   0  0  0  0  0  0  0  0  0  0  0  0
    0.3144    1.2525    0.0000 C   0  0  0  0  0  0  0  0  0  0  0  0
    0.9818    0.7676    0.0000 S   0  0  0  0  0  0  0  0  0  0  0  0
    1.6492    1.2525    0.0000 C   0  0  0  0  0  0  0  0  0  0  0  0
   -0.4825    1.0390    0.0000 C   0  0  0  0  0  0  0  0  0  0  0  0
   -1.0659    1.6224    0.0000 C   0  0  0  0  0  0  0  0  0  0  0  0
   -1.8628    1.4089    0.0000 C   0  0  0  0  0  0  0  0  0  0  0  0
   -2.0763    0.6120    0.0000 C   0  0  0  0  0  0  0  0  0  0  0  0
   -1.4929    0.0286    0.0000 C   0  0  0  0  0  0  0  0  0  0  0  0
   -0.6960    0.2421    0.0000 C   0  0  0  0  0  0  0  0  0  0  0  0
   -0.1127   -0.3412    0.0000 S   0  0  0  0  0  0  0  0  0  0  0  0
   -0.3262   -1.1381    0.0000 N   0  0  0  0  0  0  0  0  0  0  0  0
    0.6842   -0.5548    0.0000 O   0  0  0  0  0  0  0  0  0  0  0  0
    0.4707    0.2421    0.0000 O   0  0  0  0  0  0  0  0  0  0  0  0
   -1.1231   -1.3516    0.0000 C   0  0  0  0  0  0  0  0  0  0  0  0
   -1.3366   -2.1485    0.0000 C   0  0  0  0  0  0  0  0  0  0  0  0
   -1.7065   -0.7683    0.0000 C   0  0  0  0  0  0  0  0  0  0  0  0
   -1.9200   -1.5652    0.0000 C   0  0  0  0  0  0  0  0  0  0  0  0
    2.4461    1.0390    0.0000 C   0  0  0  0  0  0  0  0  0  0  0  0
    2.6597    0.2421    0.0000 C   0  0  0  0  0  0  0  0  0  0  0  0
    3.4565    0.0286    0.0000 C   0  0  0  0  0  0  0  0  0  0  0  0
    4.0399    0.6120    0.0000 C   0  0  0  0  0  0  0  0  0  0  0  0
    3.8264    1.4089    0.0000 C   0  0  0  0  0  0  0  0  0  0  0  0
    3.0295    1.6224    0.0000 C   0  0  0  0  0  0  0  0  0  0  0  0
    4.8368    0.3984    0.0000 N   0  0  0  0  0  0  0  0  0  0  0  0
    5.0503   -0.3984    0.0000 C   0  0  0  0  0  0  0  0  0  0  0  0
    5.8472   -0.6120    0.0000 N   0  0  0  0  0  0  0  0  0  0  0  0
    4.4670   -0.9818    0.0000 S   0  0  0  0  0  0  0  0  0  0  0  0
    6.4306   -0.0286    0.0000 C   0  0  0  0  0  0  0  0  0  0  0  0
   -2.8732    0.3984    0.0000 N   0  0  0  0  0  0  0  0  0  0  0  0
   -3.4566    0.9818    0.0000 C   0  0  0  0  0  0  0  0  0  0  0  0
   -4.2534    0.7683    0.0000 N   0  0  0  0  0  0  0  0  0  0  0  0
   -3.2430    1.7787    0.0000 O   0  0  0  0  0  0  0  0  0  0  0  0
   -4.8368    1.3516    0.0000 C   0  0  0  0  0  0  0  0  0  0  0  0
   -5.6337    1.1381    0.0000 C   0  0  0  0  0  0  0  0  0  0  0  0
   -4.6233    2.1485    0.0000 C   0  0  0  0  0  0  0  0  0  0  0  0
   -6.2171    1.7215    0.0000 C   0  0  0  0  0  0  0  0  0  0  0  0
   -7.0139    1.5080    0.0000 C   0  0  0  0  0  0  0  0  0  0  0  0
   -7.2275    0.7111    0.0000 C   0  0  0  0  0  0  0  0  0  0  0  0
   -6.6441    0.1277    0.0000 C   0  0  0  0  0  0  0  0  0  0  0  0
   -5.8472    0.3412    0.0000 C   0  0  0  0  0  0  0  0  0  0  0  0
    7.2275   -0.2421    0.0000 C   0  0  0  0  0  0  0  0  0  0  0  0
    6.2171    0.7683    0.0000 C   0  0  0  0  0  0  0  0  0  0  0  0
  1  2  4  0  0  0  0
  2  3  4  0  0  0  0
  3  4  4  0  0  0  0
  4  5  4  0  0  0  0
  5  1  4  0  0  0  0
  3  6  1  0  0  0  0
  6  7  4  0  0  0  0
  7  8  4  0  0  0  0
  8  9  4  0  0  0  0
  9 10  4  0  0  0  0
 10 11  4  0  0  0  0
 11  6  4  0  0  0  0
  9 31  1  0  0  0  0
 11 12  1  0  0  0  0
 12 13  1  0  0  0  0
 12 14  2  0  0  0  0
 15 12  2  0  0  0  0
 13 16  1  0  0  0  0
 16 17  1  0  0  0  0
 16 18  1  0  0  0  0
 16 19  1  0  0  0  0
  5 20  1  0  0  0  0
 20 21  4  0  0  0  0
 21 22  4  0  0  0  0
 22 23  4  0  0  0  0
 23 24  4  0  0  0  0
 24 25  4  0  0  0  0
 25 20  4  0  0  0  0
 23 26  1  0  0  0  0
 26 27  1  0  0  0  0
 27 28  1  0  0  0  0
 27 29  2  0  0  0  0
 28 30  1  0  0  0  0
 31 32  1  0  0  0  0
 32 33  1  0  0  0  0
 32 34  2  0  0  0  0
 33 35  1  0  0  0  0
 35 36  1  0  0  0  0
 35 37  1  0  0  0  0
 36 38  4  0  0  0  0
 38 39  4  0  0  0  0
 39 40  4  0  0  0  0
 40 41  4  0  0  0  0
 41 42  4  0  0  0  0
 42 36  4  0  0  0  0
 30 43  1  0  0  0  0
 30 44  1  0  0  0  0
M  END
> <From>
www.bindingDB.org

> <BindingDB Reactant_set_id>
1155336

> <Ligand InChI>
InChI=1S/C32H38N6O3S3/c1-20(2)34-31(42)37-24-14-12-23(13-15-24)29-33-19-27(43-29)26-17-16-25(18-28(26)44(40,41)38-32(4,5)6)36-30(39)35-21(3)22-10-8-7-9-11-22/h7-21,38H,1-6H3,(H2,34,37,42)(H2,35,36,39)

> <Ligand InChI Key>
IULCGLHVMHJZFH-UHFFFAOYSA-N

> <BindingDB MonomerID>
546486

> <BindingDB Ligand Name>
US11291655, No M7

> <Target Name>
DNA repair protein RAD51 homolog 1

> <Target Source Organism According to Curator or DataSource>
Homo sapiens

> <Ki (nM)>


> <IC50 (nM)>


> <Kd (nM)>


> <EC50 (nM)>
<10000

> <kon (M-1-s-1)>


> <koff (s-1)>


> <pH>


> <Temp C>


> <Curation/DataSource>
US Patent

> <Article DOI>


> <BindingDB Entry DOI>
10.7270/Q2NG4TV0

> <PMID>


> <PubChem AID>
aid1806421

> <Patent Number>
US11291655

> <Authors>
Castro, AC; McComas, CC; Vacca, J

> <Date of publication>
4/5/2022

> <Date in BindingDB>
7/21/2022

> <Institution>
Cyteir Therapeutics, Inc.

> <Link to Ligand in BindingDB>
http://www.bindingdb.org/bind/chemsearch/marvin/MolStructure.jsp?monomerid=546486

> <Link to Ligand-Target Pair in BindingDB>
http://www.bindingdb.org/jsp/dbsearch/PrimarySearch_ki.jsp?energyterm=kJ/mole&tag=pol&polymerid=4676&target=DNA+repair+protein+RAD51+homolog+1&column=ki&startPg=0&Increment=50&submit=Search

> <Link to Ligand-Target Pair in BindingDB>
http://www.bindingdb.org/jsp/dbsearch/PrimarySearch_ki.jsp?energyterm=kJ/mole&tag=r21&monomerid=546486&enzyme=DNA+repair+protein+RAD51+homolog+1&column=ki&startPg=0&Increment=50&submit=Search

> <Ligand HET ID in PDB>


> <PDB ID(s) for Ligand-Target Complex>


> <PubChem CID of Ligand>
137411742

> <PubChem SID of Ligand>
469681182

> <ChEBI ID of Ligand>


> <ChEMBL ID of Ligand>


> <DrugBank ID of Ligand>


> <IUPHAR_GRAC ID of Ligand>


> <KEGG ID of Ligand>


> <ZINC ID of Ligand>


> <Number of Protein Chains in Target (bigger than 1 implies a multichain complex)>
1

> <BindingDB Target Chain Sequence>
MAMQMQLEANADTSVEEESFGPQPISRLEQCGINANDVKKLEEAGFHTVEAVAYAPKKELINIKGISEAKADKILAEAAKLVPMGFTTATEFHQRRSEIIQITTGSKELDKLLQGGIETGSITEMFGEFRTGKTQICHTLAVTCQLPIDRGGGEGKAMYIDTEGTFRPERLLAVAERYGLSGSDVLDNVAYARAFNTDHQTQLLYQASAMMVESRYALLIVDSATALYRTDYSGRGELSARQMHLARFLRMLLRLADEFGVAVVITNQVVAQVDGAAMFAADPKKPIGGNIIAHASTTRLYLRKGRGETRICKIYDSPCLPEAEAMFAINADGVGDAKD

> <PDB ID(s) of Target Chain>
1N0W,5JZC,5NP7,5NWL,8BQ2,8BR2,8BSC

> <UniProt (SwissProt) Recommended Name of Target Chain>
DNA repair protein RAD51 homolog 1

> <UniProt (SwissProt) Entry Name of Target Chain>
RAD51_HUMAN

> <UniProt (SwissProt) Primary ID of Target Chain>
Q06609

> <UniProt (SwissProt) Secondary ID(s) of Target Chain>
B0FXP0 B2R8T6 Q6FHX9 Q6ZNA8 Q9BV60

> <UniProt (SwissProt) Alternative ID(s) of Target Chain>


> <UniProt (TrEMBL) Submitted Name of Target Chain>


> <UniProt (TrEMBL) Entry Name of Target Chain>


> <UniProt (TrEMBL) Primary ID of Target Chain>


> <UniProt (TrEMBL) Secondary ID(s) of Target Chain>


> <UniProt (TrEMBL) Alternative ID(s) of Target Chain>


$$$$
00348001.cdx
  Mrv0541 07212217012D          

 44 47  0  0  0  0            999 V2000
    1.3943    2.0372    0.0000 N   0  0  0  0  0  0  0  0  0  0  0  0
    0.5693    2.0372    0.0000 C   0  0  0  0  0  0  0  0  0  0  0  0
    0.3144    1.2525    0.0000 C   0  0  0  0  0  0  0  0  0  0  0  0
    0.9818    0.7676    0.0000 S   0  0  0  0  0  0  0  0  0  0  0  0
    1.6492    1.2525    0.0000 C   0  0  0  0  0  0  0  0  0  0  0  0
   -0.4825    1.0390    0.0000 C   0  0  0  0  0  0  0  0  0  0  0  0
   -1.0659    1.6224    0.0000 C   0  0  0  0  0  0  0  0  0  0  0  0
   -1.8628    1.4089    0.0000 C   0  0  0  0  0  0  0  0  0  0  0  0
   -2.0763    0.6120    0.0000 C   0  0  0  0  0  0  0  0  0  0  0  0
   -1.4929    0.0286    0.0000 C   0  0  0  0  0  0  0  0  0  0  0  0
   -0.6960    0.2421    0.0000 C   0  0  0  0  0  0  0  0  0  0  0  0
   -0.1127   -0.3412    0.0000 S   0  0  0  0  0  0  0  0  0  0  0  0
   -0.3262   -1.1381    0.0000 N   0  0  0  0  0  0  0  0  0  0  0  0
    0.6842   -0.5548    0.0000 O   0  0  0  0  0  0  0  0  0  0  0  0
    0.4707    0.2421    0.0000 O   0  0  0  0  0  0  0  0  0  0  0  0
   -1.1231   -1.3516    0.0000 C   0  0  0  0  0  0  0  0  0  0  0  0
   -1.3366   -2.1485    0.0000 C   0  0  0  0  0  0  0  0  0  0  0  0
   -1.7065   -0.7683    0.0000 C   0  0  0  0  0  0  0  0  0  0  0  0
   -1.9200   -1.5652    0.0000 C   0  0  0  0  0  0  0  0  0  0  0  0
    2.4461    1.0390    0.0000 C   0  0  0  0  0  0  0  0  0  0  0  0
    2.6597    0.2421    0.0000 C   0  0  0  0  0  0  0  0  0  0  0  0
    3.4565    0.0286    0.0000 C   0  0  0  0  0  0  0  0  0  0  0  0
    4.0399    0.6120    0.0000 C   0  0  0  0  0  0  0  0  0  0  0  0
    3.8264    1.4089    0.0000 C   0  0  0  0  0  0  0  0  0  0  0  0
    3.0295    1.6224    0.0000 C   0  0  0  0  0  0  0  0  0  0  0  0
    4.8368    0.3984    0.0000 N   0  0  0  0  0  0  0  0  0  0  0  0
    5.0503   -0.3984    0.0000 C   0  0  0  0  0  0  0  0  0  0  0  0
    5.8472   -0.6120    0.0000 N   0  0  0  0  0  0  0  0  0  0  0  0
    4.4670   -0.9818    0.0000 S   0  0  0  0  0  0  0  0  0  0  0  0
    6.4306   -0.0286    0.0000 C   0  0  0  0  0  0  0  0  0  0  0  0
   -2.8732    0.3984    0.0000 N   0  0  0  0  0  0  0  0  0  0  0  0
   -3.4566    0.9818    0.0000 C   0  0  0  0  0  0  0  0  0  0  0  0
   -4.2534    0.7683    0.0000 O   0  0  0  0  0  0  0  0  0  0  0  0
   -3.2430    1.7787    0.0000 O   0  0  0  0  0  0  0  0  0  0  0  0
   -4.8368    1.3516    0.0000 C   0  0  0  0  0  0  0  0  0  0  0  0
   -5.6337    1.1381    0.0000 C   0  0  0  0  0  0  0  0  0  0  0  0
   -4.6233    2.1485    0.0000 C   0  0  0  0  0  0  0  0  0  0  0  0
   -6.2171    1.7215    0.0000 C   0  0  0  0  0  0  0  0  0  0  0  0
   -7.0139    1.5080    0.0000 C   0  0  0  0  0  0  0  0  0  0  0  0
   -7.2275    0.7111    0.0000 C   0  0  0  0  0  0  0  0  0  0  0  0
   -6.6441    0.1277    0.0000 C   0  0  0  0  0  0  0  0  0  0  0  0
   -5.8472    0.3412    0.0000 C   0  0  0  0  0  0  0  0  0  0  0  0
    7.2275   -0.2421    0.0000 C   0  0  0  0  0  0  0  0  0  0  0  0
    6.2171    0.7683    0.0000 C   0  0  0  0  0  0  0  0  0  0  0  0
  1  2  4  0  0  0  0
  2  3  4  0  0  0  0
  3  4  4  0  0  0  0
  4  5  4  0  0  0  0
  5  1  4  0  0  0  0
  3  6  1  0  0  0  0
  6  7  4  0  0  0  0
  7  8  4  0  0  0  0
  8  9  4  0  0  0  0
  9 10  4  0  0  0  0
 10 11  4  0  0  0  0
 11  6  4  0  0  0  0
  9 31  1  0  0  0  0
 11 12  1  0  0  0  0
 12 13  1  0  0  0  0
 12 14  2  0  0  0  0
 15 12  2  0  0  0  0
 13 16  1  0  0  0  0
 16 17  1  0  0  0  0
 16 18  1  0  0  0  0
 16 19  1  0  0  0  0
  5 20  1  0  0  0  0
 20 21  4  0  0  0  0
 21 22  4  0  0  0  0
 22 23  4  0  0  0  0
 23 24  4  0  0  0  0
 24 25  4  0  0  0  0
 25 20  4  0  0  0  0
 23 26  1  0  0  0  0
 26 27  1  0  0  0  0
 27 28  1  0  0  0  0
 27 29  2  0  0  0  0
 28 30  1  0  0  0  0
 31 32  1  0  0  0  0
 32 33  1  0  0  0  0
 32 34  2  0  0  0  0
 33 35  1  0  0  0  0
 35 36  1  0  0  0  0
 35 37  1  0  0  0  0
 36 38  4  0  0  0  0
 38 39  4  0  0  0  0
 39 40  4  0  0  0  0
 40 41  4  0  0  0  0
 41 42  4  0  0  0  0
 42 36  4  0  0  0  0
 30 43  1  0  0  0  0
 30 44  1  0  0  0  0
M  END
> <From>
www.bindingDB.org

> <BindingDB Reactant_set_id>
1155337

> <Ligand InChI>
InChI=1S/C32H37N5O4S3/c1-20(2)34-30(42)35-24-14-12-23(13-15-24)29-33-19-27(43-29)26-17-16-25(18-28(26)44(39,40)37-32(4,5)6)36-31(38)41-21(3)22-10-8-7-9-11-22/h7-21,37H,1-6H3,(H,36,38)(H2,34,35,42)

> <Ligand InChI Key>
REXCVBKMASERIG-UHFFFAOYSA-N

> <BindingDB MonomerID>
546487

> <BindingDB Ligand Name>
US11291655, No M8

> <Target Name>
DNA repair protein RAD51 homolog 1

> <Target Source Organism According to Curator or DataSource>
Homo sapiens

> <Ki (nM)>


> <IC50 (nM)>


> <Kd (nM)>


> <EC50 (nM)>
<10000

> <kon (M-1-s-1)>


> <koff (s-1)>


> <pH>


> <Temp C>


> <Curation/DataSource>
US Patent

> <Article DOI>


> <BindingDB Entry DOI>
10.7270/Q2NG4TV0

> <PMID>


> <PubChem AID>
aid1806421

> <Patent Number>
US11291655

> <Authors>
Castro, AC; McComas, CC; Vacca, J

> <Date of publication>
4/5/2022

> <Date in BindingDB>
7/21/2022

> <Institution>
Cyteir Therapeutics, Inc.

> <Link to Ligand in BindingDB>
http://www.bindingdb.org/bind/chemsearch/marvin/MolStructure.jsp?monomerid=546487

> <Link to Ligand-Target Pair in BindingDB>
http://www.bindingdb.org/jsp/dbsearch/PrimarySearch_ki.jsp?energyterm=kJ/mole&tag=pol&polymerid=4676&target=DNA+repair+protein+RAD51+homolog+1&column=ki&startPg=0&Increment=50&submit=Search

> <Link to Ligand-Target Pair in BindingDB>
http://www.bindingdb.org/jsp/dbsearch/PrimarySearch_ki.jsp?energyterm=kJ/mole&tag=r21&monomerid=546487&enzyme=DNA+repair+protein+RAD51+homolog+1&column=ki&startPg=0&Increment=50&submit=Search

> <Ligand HET ID in PDB>


> <PDB ID(s) for Ligand-Target Complex>


> <PubChem CID of Ligand>
137412074

> <PubChem SID of Ligand>
469681183

> <ChEBI ID of Ligand>


> <ChEMBL ID of Ligand>


> <DrugBank ID of Ligand>


> <IUPHAR_GRAC ID of Ligand>


> <KEGG ID of Ligand>


> <ZINC ID of Ligand>


> <Number of Protein Chains in Target (bigger than 1 implies a multichain complex)>
1

> <BindingDB Target Chain Sequence>
MAMQMQLEANADTSVEEESFGPQPISRLEQCGINANDVKKLEEAGFHTVEAVAYAPKKELINIKGISEAKADKILAEAAKLVPMGFTTATEFHQRRSEIIQITTGSKELDKLLQGGIETGSITEMFGEFRTGKTQICHTLAVTCQLPIDRGGGEGKAMYIDTEGTFRPERLLAVAERYGLSGSDVLDNVAYARAFNTDHQTQLLYQASAMMVESRYALLIVDSATALYRTDYSGRGELSARQMHLARFLRMLLRLADEFGVAVVITNQVVAQVDGAAMFAADPKKPIGGNIIAHASTTRLYLRKGRGETRICKIYDSPCLPEAEAMFAINADGVGDAKD

> <PDB ID(s) of Target Chain>
1N0W,5JZC,5NP7,5NWL,8BQ2,8BR2,8BSC

> <UniProt (SwissProt) Recommended Name of Target Chain>
DNA repair protein RAD51 homolog 1

> <UniProt (SwissProt) Entry Name of Target Chain>
RAD51_HUMAN

> <UniProt (SwissProt) Primary ID of Target Chain>
Q06609

> <UniProt (SwissProt) Secondary ID(s) of Target Chain>
B0FXP0 B2R8T6 Q6FHX9 Q6ZNA8 Q9BV60

> <UniProt (SwissProt) Alternative ID(s) of Target Chain>


> <UniProt (TrEMBL) Submitted Name of Target Chain>


> <UniProt (TrEMBL) Entry Name of Target Chain>


> <UniProt (TrEMBL) Primary ID of Target Chain>


> <UniProt (TrEMBL) Secondary ID(s) of Target Chain>


> <UniProt (TrEMBL) Alternative ID(s) of Target Chain>


$$$$
00349001.cdx
  Mrv0541 07212217012D          

 44 47  0  0  0  0            999 V2000
    0.4073    1.7053    0.0000 C   0  0  0  0  0  0  0  0  0  0  0  0
    0.4073    0.8803    0.0000 C   0  0  0  0  0  0  0  0  0  0  0  0
    1.1919    0.6253    0.0000 S   0  0  0  0  0  0  0  0  0  0  0  0
    1.6769    1.2928    0.0000 C   0  0  0  0  0  0  0  0  0  0  0  0
    1.1919    1.9602    0.0000 N   0  0  0  0  0  0  0  0  0  0  0  0
   -0.3072    0.4678    0.0000 C   0  0  0  0  0  0  0  0  0  0  0  0
   -1.0216    0.8803    0.0000 C   0  0  0  0  0  0  0  0  0  0  0  0
   -1.7361    0.4678    0.0000 C   0  0  0  0  0  0  0  0  0  0  0  0
   -1.7361   -0.3572    0.0000 C   0  0  0  0  0  0  0  0  0  0  0  0
   -1.0216   -0.7697    0.0000 C   0  0  0  0  0  0  0  0  0  0  0  0
   -0.3072   -0.3572    0.0000 C   0  0  0  0  0  0  0  0  0  0  0  0
    0.4073   -0.7697    0.0000 S   0  0  0  0  0  0  0  0  0  0  0  0
    1.1218   -1.1822    0.0000 N   0  0  0  0  0  0  0  0  0  0  0  0
    0.8198   -0.0553    0.0000 O   0  0  0  0  0  0  0  0  0  0  0  0
   -0.0052   -1.4842    0.0000 O   0  0  0  0  0  0  0  0  0  0  0  0
    1.8363   -0.7697    0.0000 C   0  0  0  0  0  0  0  0  0  0  0  0
    2.5507   -1.1822    0.0000 C   0  0  0  0  0  0  0  0  0  0  0  0
    1.8363    0.0553    0.0000 C   0  0  0  0  0  0  0  0  0  0  0  0
    2.5507   -0.3572    0.0000 C   0  0  0  0  0  0  0  0  0  0  0  0
   -2.4506   -0.7697    0.0000 N   0  0  0  0  0  0  0  0  0  0  0  0
   -3.1650   -0.3572    0.0000 C   0  0  0  0  0  0  0  0  0  0  0  0
   -3.8795   -0.7697    0.0000 N   0  0  0  0  0  0  0  0  0  0  0  0
   -3.1650    0.4678    0.0000 O   0  0  0  0  0  0  0  0  0  0  0  0
   -4.5940   -0.3572    0.0000 C   0  0  0  0  0  0  0  0  0  0  0  0
    2.5019    1.2928    0.0000 C   0  0  0  0  0  0  0  0  0  0  0  0
    2.9144    0.5783    0.0000 C   0  0  0  0  0  0  0  0  0  0  0  0
    3.7394    0.5783    0.0000 C   0  0  0  0  0  0  0  0  0  0  0  0
    4.1519    1.2928    0.0000 C   0  0  0  0  0  0  0  0  0  0  0  0
    3.7394    2.0072    0.0000 C   0  0  0  0  0  0  0  0  0  0  0  0
    2.9144    2.0072    0.0000 C   0  0  0  0  0  0  0  0  0  0  0  0
    4.9769    1.2928    0.0000 N   0  0  0  0  0  0  0  0  0  0  0  0
    5.3894    0.5783    0.0000 C   0  0  0  0  0  0  0  0  0  0  0  0
    6.2144    0.5783    0.0000 N   0  0  0  0  0  0  0  0  0  0  0  0
    4.9769   -0.1362    0.0000 S   0  0  0  0  0  0  0  0  0  0  0  0
    6.6269    1.2928    0.0000 C   0  0  0  0  0  0  0  0  0  0  0  0
    7.4519    1.2928    0.0000 C   0  0  0  0  0  0  0  0  0  0  0  0
    6.2144    2.0072    0.0000 C   0  0  0  0  0  0  0  0  0  0  0  0
   -5.3084   -0.7697    0.0000 C   0  0  0  0  0  0  0  0  0  0  0  0
   -6.0229   -0.3572    0.0000 C   0  0  0  0  0  0  0  0  0  0  0  0
   -6.7374   -0.7697    0.0000 C   0  0  0  0  0  0  0  0  0  0  0  0
   -6.7374   -1.5947    0.0000 C   0  0  0  0  0  0  0  0  0  0  0  0
   -6.0229   -2.0072    0.0000 C   0  0  0  0  0  0  0  0  0  0  0  0
   -5.3084   -1.5947    0.0000 C   0  0  0  0  0  0  0  0  0  0  0  0
   -7.4519   -2.0072    0.0000 O   0  0  0  0  0  0  0  0  0  0  0  0
  1  2  4  0  0  0  0
  2  3  4  0  0  0  0
  3  4  4  0  0  0  0
  4  5  4  0  0  0  0
  5  1  4  0  0  0  0
  2  6  1  0  0  0  0
  6  7  4  0  0  0  0
  7  8  4  0  0  0  0
  8  9  4  0  0  0  0
  9 10  4  0  0  0  0
 10 11  4  0  0  0  0
 11  6  4  0  0  0  0
 11 12  1  0  0  0  0
 12 13  1  0  0  0  0
 12 14  2  0  0  0  0
 12 15  2  0  0  0  0
 13 16  1  0  0  0  0
 16 17  1  0  0  0  0
 16 18  1  0  0  0  0
 16 19  1  0  0  0  0
  9 20  1  0  0  0  0
 20 21  1  0  0  0  0
 21 22  1  0  0  0  0
 21 23  2  0  0  0  0
 22 24  1  0  0  0  0
 24 38  1  0  0  0  0
  4 25  1  0  0  0  0
 25 26  4  0  0  0  0
 26 27  4  0  0  0  0
 27 28  4  0  0  0  0
 28 29  4  0  0  0  0
 29 30  4  0  0  0  0
 30 25  4  0  0  0  0
 28 31  1  0  0  0  0
 31 32  1  0  0  0  0
 32 33  1  0  0  0  0
 32 34  2  0  0  0  0
 33 35  1  0  0  0  0
 35 36  1  0  0  0  0
 35 37  1  0  0  0  0
 38 39  4  0  0  0  0
 39 40  4  0  0  0  0
 40 41  4  0  0  0  0
 41 42  4  0  0  0  0
 42 43  4  0  0  0  0
 43 38  4  0  0  0  0
 41 44  1  0  0  0  0
M  END
> <From>
www.bindingDB.org

> <BindingDB Reactant_set_id>
1155338

> <Ligand InChI>
InChI=1S/C31H36N6O4S3/c1-19(2)34-30(42)36-22-10-8-21(9-11-22)28-32-18-26(43-28)25-15-12-23(16-27(25)44(40,41)37-31(3,4)5)35-29(39)33-17-20-6-13-24(38)14-7-20/h6-16,18-19,37-38H,17H2,1-5H3,(H2,33,35,39)(H2,34,36,42)

> <Ligand InChI Key>
SAOUNNYCJWQBON-UHFFFAOYSA-N

> <BindingDB MonomerID>
546488

> <BindingDB Ligand Name>
US11291655, No N1

> <Target Name>
DNA repair protein RAD51 homolog 1

> <Target Source Organism According to Curator or DataSource>
Homo sapiens

> <Ki (nM)>


> <IC50 (nM)>


> <Kd (nM)>


> <EC50 (nM)>
<10000

> <kon (M-1-s-1)>


> <koff (s-1)>


> <pH>


> <Temp C>


> <Curation/DataSource>
US Patent

> <Article DOI>


> <BindingDB Entry DOI>
10.7270/Q2NG4TV0

> <PMID>


> <PubChem AID>
aid1806421

> <Patent Number>
US11291655

> <Authors>
Castro, AC; McComas, CC; Vacca, J

> <Date of publication>
4/5/2022

> <Date in BindingDB>
7/21/2022

> <Institution>
Cyteir Therapeutics, Inc.

> <Link to Ligand in BindingDB>
http://www.bindingdb.org/bind/chemsearch/marvin/MolStructure.jsp?monomerid=546488

> <Link to Ligand-Target Pair in BindingDB>
http://www.bindingdb.org/jsp/dbsearch/PrimarySearch_ki.jsp?energyterm=kJ/mole&tag=pol&polymerid=4676&target=DNA+repair+protein+RAD51+homolog+1&column=ki&startPg=0&Increment=50&submit=Search

> <Link to Ligand-Target Pair in BindingDB>
http://www.bindingdb.org/jsp/dbsearch/PrimarySearch_ki.jsp?energyterm=kJ/mole&tag=r21&monomerid=546488&enzyme=DNA+repair+protein+RAD51+homolog+1&column=ki&startPg=0&Increment=50&submit=Search

> <Ligand HET ID in PDB>


> <PDB ID(s) for Ligand-Target Complex>


> <PubChem CID of Ligand>
137408610

> <PubChem SID of Ligand>
469681184

> <ChEBI ID of Ligand>


> <ChEMBL ID of Ligand>


> <DrugBank ID of Ligand>


> <IUPHAR_GRAC ID of Ligand>


> <KEGG ID of Ligand>


> <ZINC ID of Ligand>


> <Number of Protein Chains in Target (bigger than 1 implies a multichain complex)>
1

> <BindingDB Target Chain Sequence>
MAMQMQLEANADTSVEEESFGPQPISRLEQCGINANDVKKLEEAGFHTVEAVAYAPKKELINIKGISEAKADKILAEAAKLVPMGFTTATEFHQRRSEIIQITTGSKELDKLLQGGIETGSITEMFGEFRTGKTQICHTLAVTCQLPIDRGGGEGKAMYIDTEGTFRPERLLAVAERYGLSGSDVLDNVAYARAFNTDHQTQLLYQASAMMVESRYALLIVDSATALYRTDYSGRGELSARQMHLARFLRMLLRLADEFGVAVVITNQVVAQVDGAAMFAADPKKPIGGNIIAHASTTRLYLRKGRGETRICKIYDSPCLPEAEAMFAINADGVGDAKD

> <PDB ID(s) of Target Chain>
1N0W,5JZC,5NP7,5NWL,8BQ2,8BR2,8BSC

> <UniProt (SwissProt) Recommended Name of Target Chain>
DNA repair protein RAD51 homolog 1

> <UniProt (SwissProt) Entry Name of Target Chain>
RAD51_HUMAN

> <UniProt (SwissProt) Primary ID of Target Chain>
Q06609

> <UniProt (SwissProt) Secondary ID(s) of Target Chain>
B0FXP0 B2R8T6 Q6FHX9 Q6ZNA8 Q9BV60

> <UniProt (SwissProt) Alternative ID(s) of Target Chain>


> <UniProt (TrEMBL) Submitted Name of Target Chain>


> <UniProt (TrEMBL) Entry Name of Target Chain>


> <UniProt (TrEMBL) Primary ID of Target Chain>


> <UniProt (TrEMBL) Secondary ID(s) of Target Chain>


> <UniProt (TrEMBL) Alternative ID(s) of Target Chain>


$$$$
00350001.cdx
  Mrv0541 07212217012D          

 44 47  0  0  0  0            999 V2000
    0.4073    1.7053    0.0000 C   0  0  0  0  0  0  0  0  0  0  0  0
    0.4073    0.8803    0.0000 C   0  0  0  0  0  0  0  0  0  0  0  0
    1.1919    0.6253    0.0000 S   0  0  0  0  0  0  0  0  0  0  0  0
    1.6769    1.2928    0.0000 C   0  0  0  0  0  0  0  0  0  0  0  0
    1.1919    1.9602    0.0000 N   0  0  0  0  0  0  0  0  0  0  0  0
   -0.3072    0.4678    0.0000 C   0  0  0  0  0  0  0  0  0  0  0  0
   -1.0216    0.8803    0.0000 C   0  0  0  0  0  0  0  0  0  0  0  0
   -1.7361    0.4678    0.0000 C   0  0  0  0  0  0  0  0  0  0  0  0
   -1.7361   -0.3572    0.0000 C   0  0  0  0  0  0  0  0  0  0  0  0
   -1.0216   -0.7697    0.0000 C   0  0  0  0  0  0  0  0  0  0  0  0
   -0.3072   -0.3572    0.0000 C   0  0  0  0  0  0  0  0  0  0  0  0
    0.4073   -0.7697    0.0000 S   0  0  0  0  0  0  0  0  0  0  0  0
    1.1218   -1.1822    0.0000 N   0  0  0  0  0  0  0  0  0  0  0  0
    0.8198   -0.0553    0.0000 O   0  0  0  0  0  0  0  0  0  0  0  0
   -0.0052   -1.4842    0.0000 O   0  0  0  0  0  0  0  0  0  0  0  0
    1.8363   -0.7697    0.0000 C   0  0  0  0  0  0  0  0  0  0  0  0
    2.5507   -1.1822    0.0000 C   0  0  0  0  0  0  0  0  0  0  0  0
    1.8363    0.0553    0.0000 C   0  0  0  0  0  0  0  0  0  0  0  0
    2.5507   -0.3572    0.0000 C   0  0  0  0  0  0  0  0  0  0  0  0
   -2.4506   -0.7697    0.0000 N   0  0  0  0  0  0  0  0  0  0  0  0
   -3.1650   -0.3572    0.0000 C   0  0  0  0  0  0  0  0  0  0  0  0
   -3.8795   -0.7697    0.0000 N   0  0  0  0  0  0  0  0  0  0  0  0
   -3.1650    0.4678    0.0000 O   0  0  0  0  0  0  0  0  0  0  0  0
   -4.5940   -0.3572    0.0000 C   0  0  0  0  0  0  0  0  0  0  0  0
    2.5019    1.2928    0.0000 C   0  0  0  0  0  0  0  0  0  0  0  0
    2.9144    0.5783    0.0000 C   0  0  0  0  0  0  0  0  0  0  0  0
    3.7394    0.5783    0.0000 C   0  0  0  0  0  0  0  0  0  0  0  0
    4.1519    1.2928    0.0000 C   0  0  0  0  0  0  0  0  0  0  0  0
    3.7394    2.0072    0.0000 C   0  0  0  0  0  0  0  0  0  0  0  0
    2.9144    2.0072    0.0000 C   0  0  0  0  0  0  0  0  0  0  0  0
    4.9769    1.2928    0.0000 N   0  0  0  0  0  0  0  0  0  0  0  0
    5.3894    0.5783    0.0000 C   0  0  0  0  0  0  0  0  0  0  0  0
    6.2144    0.5783    0.0000 N   0  0  0  0  0  0  0  0  0  0  0  0
    4.9769   -0.1362    0.0000 S   0  0  0  0  0  0  0  0  0  0  0  0
    6.6269    1.2928    0.0000 C   0  0  0  0  0  0  0  0  0  0  0  0
    7.4519    1.2928    0.0000 C   0  0  0  0  0  0  0  0  0  0  0  0
    6.2144    2.0072    0.0000 C   0  0  0  0  0  0  0  0  0  0  0  0
   -5.3084   -0.7697    0.0000 C   0  0  0  0  0  0  0  0  0  0  0  0
   -6.0229   -0.3572    0.0000 C   0  0  0  0  0  0  0  0  0  0  0  0
   -6.7374   -0.7697    0.0000 C   0  0  0  0  0  0  0  0  0  0  0  0
   -6.7374   -1.5947    0.0000 C   0  0  0  0  0  0  0  0  0  0  0  0
   -6.0229   -2.0072    0.0000 C   0  0  0  0  0  0  0  0  0  0  0  0
   -5.3084   -1.5947    0.0000 C   0  0  0  0  0  0  0  0  0  0  0  0
   -7.4519   -0.3572    0.0000 O   0  0  0  0  0  0  0  0  0  0  0  0
  1  2  4  0  0  0  0
  2  3  4  0  0  0  0
  3  4  4  0  0  0  0
  4  5  4  0  0  0  0
  5  1  4  0  0  0  0
  2  6  1  0  0  0  0
  6  7  4  0  0  0  0
  7  8  4  0  0  0  0
  8  9  4  0  0  0  0
  9 10  4  0  0  0  0
 10 11  4  0  0  0  0
 11  6  4  0  0  0  0
 11 12  1  0  0  0  0
 12 13  1  0  0  0  0
 12 14  2  0  0  0  0
 12 15  2  0  0  0  0
 13 16  1  0  0  0  0
 16 17  1  0  0  0  0
 16 18  1  0  0  0  0
 16 19  1  0  0  0  0
  9 20  1  0  0  0  0
 20 21  1  0  0  0  0
 21 22  1  0  0  0  0
 21 23  2  0  0  0  0
 22 24  1  0  0  0  0
 24 38  1  0  0  0  0
  4 25  1  0  0  0  0
 25 26  4  0  0  0  0
 26 27  4  0  0  0  0
 27 28  4  0  0  0  0
 28 29  4  0  0  0  0
 29 30  4  0  0  0  0
 30 25  4  0  0  0  0
 28 31  1  0  0  0  0
 31 32  1  0  0  0  0
 32 33  1  0  0  0  0
 32 34  2  0  0  0  0
 33 35  1  0  0  0  0
 35 36  1  0  0  0  0
 35 37  1  0  0  0  0
 38 39  4  0  0  0  0
 39 40  4  0  0  0  0
 40 41  4  0  0  0  0
 41 42  4  0  0  0  0
 42 43  4  0  0  0  0
 43 38  4  0  0  0  0
 40 44  1  0  0  0  0
M  END
> <From>
www.bindingDB.org

> <BindingDB Reactant_set_id>
1155339

> <Ligand InChI>
InChI=1S/C31H36N6O4S3/c1-19(2)34-30(42)36-22-11-9-21(10-12-22)28-32-18-26(43-28)25-14-13-23(16-27(25)44(40,41)37-31(3,4)5)35-29(39)33-17-20-7-6-8-24(38)15-20/h6-16,18-19,37-38H,17H2,1-5H3,(H2,33,35,39)(H2,34,36,42)

> <Ligand InChI Key>
PWIIXGAZNVFPRR-UHFFFAOYSA-N

> <BindingDB MonomerID>
546489

> <BindingDB Ligand Name>
US11291655, No N2

> <Target Name>
DNA repair protein RAD51 homolog 1

> <Target Source Organism According to Curator or DataSource>
Homo sapiens

> <Ki (nM)>


> <IC50 (nM)>


> <Kd (nM)>


> <EC50 (nM)>
<10000

> <kon (M-1-s-1)>


> <koff (s-1)>


> <pH>


> <Temp C>


> <Curation/DataSource>
US Patent

> <Article DOI>


> <BindingDB Entry DOI>
10.7270/Q2NG4TV0

> <PMID>


> <PubChem AID>
aid1806421

> <Patent Number>
US11291655

> <Authors>
Castro, AC; McComas, CC; Vacca, J

> <Date of publication>
4/5/2022

> <Date in BindingDB>
7/21/2022

> <Institution>
Cyteir Therapeutics, Inc.

> <Link to Ligand in BindingDB>
http://www.bindingdb.org/bind/chemsearch/marvin/MolStructure.jsp?monomerid=546489

> <Link to Ligand-Target Pair in BindingDB>
http://www.bindingdb.org/jsp/dbsearch/PrimarySearch_ki.jsp?energyterm=kJ/mole&tag=pol&polymerid=4676&target=DNA+repair+protein+RAD51+homolog+1&column=ki&startPg=0&Increment=50&submit=Search

> <Link to Ligand-Target Pair in BindingDB>
http://www.bindingdb.org/jsp/dbsearch/PrimarySearch_ki.jsp?energyterm=kJ/mole&tag=r21&monomerid=546489&enzyme=DNA+repair+protein+RAD51+homolog+1&column=ki&startPg=0&Increment=50&submit=Search

> <Ligand HET ID in PDB>


> <PDB ID(s) for Ligand-Target Complex>


> <PubChem CID of Ligand>
137411928

> <PubChem SID of Ligand>
469681185

> <ChEBI ID of Ligand>


> <ChEMBL ID of Ligand>


> <DrugBank ID of Ligand>


> <IUPHAR_GRAC ID of Ligand>


> <KEGG ID of Ligand>


> <ZINC ID of Ligand>


> <Number of Protein Chains in Target (bigger than 1 implies a multichain complex)>
1

> <BindingDB Target Chain Sequence>
MAMQMQLEANADTSVEEESFGPQPISRLEQCGINANDVKKLEEAGFHTVEAVAYAPKKELINIKGISEAKADKILAEAAKLVPMGFTTATEFHQRRSEIIQITTGSKELDKLLQGGIETGSITEMFGEFRTGKTQICHTLAVTCQLPIDRGGGEGKAMYIDTEGTFRPERLLAVAERYGLSGSDVLDNVAYARAFNTDHQTQLLYQASAMMVESRYALLIVDSATALYRTDYSGRGELSARQMHLARFLRMLLRLADEFGVAVVITNQVVAQVDGAAMFAADPKKPIGGNIIAHASTTRLYLRKGRGETRICKIYDSPCLPEAEAMFAINADGVGDAKD

> <PDB ID(s) of Target Chain>
1N0W,5JZC,5NP7,5NWL,8BQ2,8BR2,8BSC

> <UniProt (SwissProt) Recommended Name of Target Chain>
DNA repair protein RAD51 homolog 1

> <UniProt (SwissProt) Entry Name of Target Chain>
RAD51_HUMAN

> <UniProt (SwissProt) Primary ID of Target Chain>
Q06609

> <UniProt (SwissProt) Secondary ID(s) of Target Chain>
B0FXP0 B2R8T6 Q6FHX9 Q6ZNA8 Q9BV60

> <UniProt (SwissProt) Alternative ID(s) of Target Chain>


> <UniProt (TrEMBL) Submitted Name of Target Chain>


> <UniProt (TrEMBL) Entry Name of Target Chain>


> <UniProt (TrEMBL) Primary ID of Target Chain>


> <UniProt (TrEMBL) Secondary ID(s) of Target Chain>


> <UniProt (TrEMBL) Alternative ID(s) of Target Chain>


$$$$
00351001.cdx
  Mrv0541 07212217012D          

 42 45  0  0  0  0            999 V2000
    0.0031    0.8151    0.0000 C   0  0  0  0  0  0  0  0  0  0  0  0
    0.0031   -0.0099    0.0000 C   0  0  0  0  0  0  0  0  0  0  0  0
    0.7877   -0.2648    0.0000 S   0  0  0  0  0  0  0  0  0  0  0  0
    1.2726    0.4026    0.0000 C   0  0  0  0  0  0  0  0  0  0  0  0
    0.7877    1.0700    0.0000 N   0  0  0  0  0  0  0  0  0  0  0  0
   -0.7114   -0.4224    0.0000 C   0  0  0  0  0  0  0  0  0  0  0  0
   -1.4259   -0.0099    0.0000 C   0  0  0  0  0  0  0  0  0  0  0  0
   -2.1404   -0.4224    0.0000 C   0  0  0  0  0  0  0  0  0  0  0  0
   -2.1404   -1.2474    0.0000 C   0  0  0  0  0  0  0  0  0  0  0  0
   -1.4259   -1.6599    0.0000 C   0  0  0  0  0  0  0  0  0  0  0  0
   -0.7114   -1.2474    0.0000 C   0  0  0  0  0  0  0  0  0  0  0  0
    0.0031   -1.6599    0.0000 S   0  0  0  0  0  0  0  0  0  0  0  0
    0.7175   -2.0724    0.0000 N   0  0  0  0  0  0  0  0  0  0  0  0
    0.4156   -0.9454    0.0000 O   0  0  0  0  0  0  0  0  0  0  0  0
   -0.4094   -2.3744    0.0000 O   0  0  0  0  0  0  0  0  0  0  0  0
    1.4320   -1.6599    0.0000 C   0  0  0  0  0  0  0  0  0  0  0  0
    2.1465   -2.0724    0.0000 C   0  0  0  0  0  0  0  0  0  0  0  0
    1.4320   -0.8349    0.0000 C   0  0  0  0  0  0  0  0  0  0  0  0
    2.1465   -1.2474    0.0000 C   0  0  0  0  0  0  0  0  0  0  0  0
   -2.8548   -1.6599    0.0000 N   0  0  0  0  0  0  0  0  0  0  0  0
   -3.5693   -1.2474    0.0000 C   0  0  0  0  0  0  0  0  0  0  0  0
   -4.2838   -1.6599    0.0000 N   0  0  0  0  0  0  0  0  0  0  0  0
   -3.5693   -0.4224    0.0000 O   0  0  0  0  0  0  0  0  0  0  0  0
   -4.9982   -1.2474    0.0000 C   0  0  0  0  0  0  0  0  0  0  0  0
    2.0976    0.4026    0.0000 C   0  0  0  0  0  0  0  0  0  0  0  0
    2.5101   -0.3119    0.0000 C   0  0  0  0  0  0  0  0  0  0  0  0
    3.3351   -0.3119    0.0000 C   0  0  0  0  0  0  0  0  0  0  0  0
    3.7476    0.4026    0.0000 C   0  0  0  0  0  0  0  0  0  0  0  0
    3.3351    1.1171    0.0000 C   0  0  0  0  0  0  0  0  0  0  0  0
    2.5101    1.1171    0.0000 C   0  0  0  0  0  0  0  0  0  0  0  0
    4.5726    0.4026    0.0000 N   0  0  0  0  0  0  0  0  0  0  0  0
    4.9851   -0.3119    0.0000 C   0  0  0  0  0  0  0  0  0  0  0  0
    5.8101   -0.3119    0.0000 N   0  0  0  0  0  0  0  0  0  0  0  0
    4.5726   -1.0263    0.0000 S   0  0  0  0  0  0  0  0  0  0  0  0
    6.2226    0.4026    0.0000 C   0  0  0  0  0  0  0  0  0  0  0  0
    7.0476    0.4026    0.0000 C   0  0  0  0  0  0  0  0  0  0  0  0
    5.8101    1.1171    0.0000 C   0  0  0  0  0  0  0  0  0  0  0  0
   -6.7927   -2.4445    0.0000 N   0  0  0  0  0  0  0  0  0  0  0  0
   -5.9677   -2.4445    0.0000 C   0  0  0  0  0  0  0  0  0  0  0  0
   -5.7127   -1.6599    0.0000 C   0  0  0  0  0  0  0  0  0  0  0  0
   -6.3802   -1.1750    0.0000 C   0  0  0  0  0  0  0  0  0  0  0  0
   -7.0476   -1.6599    0.0000 N   0  0  0  0  0  0  0  0  0  0  0  0
  1  2  4  0  0  0  0
  2  3  4  0  0  0  0
  3  4  4  0  0  0  0
  4  5  4  0  0  0  0
  5  1  4  0  0  0  0
  2  6  1  0  0  0  0
  6  7  4  0  0  0  0
  7  8  4  0  0  0  0
  8  9  4  0  0  0  0
  9 10  4  0  0  0  0
 10 11  4  0  0  0  0
 11  6  4  0  0  0  0
 11 12  1  0  0  0  0
 12 13  1  0  0  0  0
 12 14  2  0  0  0  0
 12 15  2  0  0  0  0
 13 16  1  0  0  0  0
 16 17  1  0  0  0  0
 16 18  1  0  0  0  0
 16 19  1  0  0  0  0
  9 20  1  0  0  0  0
 20 21  1  0  0  0  0
 21 22  1  0  0  0  0
 21 23  2  0  0  0  0
 22 24  1  0  0  0  0
 24 40  1  0  0  0  0
  4 25  1  0  0  0  0
 25 26  4  0  0  0  0
 26 27  4  0  0  0  0
 27 28  4  0  0  0  0
 28 29  4  0  0  0  0
 29 30  4  0  0  0  0
 30 25  4  0  0  0  0
 28 31  1  0  0  0  0
 31 32  1  0  0  0  0
 32 33  1  0  0  0  0
 32 34  2  0  0  0  0
 33 35  1  0  0  0  0
 35 36  1  0  0  0  0
 35 37  1  0  0  0  0
 38 39  4  0  0  0  0
 39 40  4  0  0  0  0
 40 41  4  0  0  0  0
 41 42  4  0  0  0  0
 42 38  4  0  0  0  0
M  STY  1   1 DAT
M  SAL   1  1  42
M  SDT   1 MRV_IMPLICIT_H                                        
M  SDD   1     0.0000    0.0000    DR    ALL  0       0  
M  SED   1 IMPL_H1
M  END
> <From>
www.bindingDB.org

> <BindingDB Reactant_set_id>
1155340

> <Ligand InChI>
InChI=1S/C28H34N8O3S3/c1-17(2)33-27(40)35-20-8-6-19(7-9-20)25-29-16-23(41-25)22-11-10-21(12-24(22)42(38,39)36-28(3,4)5)34-26(37)30-13-18-14-31-32-15-18/h6-12,14-17,36H,13H2,1-5H3,(H,31,32)(H2,30,34,37)(H2,33,35,40)

> <Ligand InChI Key>
KJAQPKICBRUNOB-UHFFFAOYSA-N

> <BindingDB MonomerID>
546490

> <BindingDB Ligand Name>
US11291655, No N4

> <Target Name>
DNA repair protein RAD51 homolog 1

> <Target Source Organism According to Curator or DataSource>
Homo sapiens

> <Ki (nM)>


> <IC50 (nM)>


> <Kd (nM)>


> <EC50 (nM)>
>10000

> <kon (M-1-s-1)>


> <koff (s-1)>


> <pH>


> <Temp C>


> <Curation/DataSource>
US Patent

> <Article DOI>


> <BindingDB Entry DOI>
10.7270/Q2NG4TV0

> <PMID>


> <PubChem AID>
aid1806421

> <Patent Number>
US11291655

> <Authors>
Castro, AC; McComas, CC; Vacca, J

> <Date of publication>
4/5/2022

> <Date in BindingDB>
7/21/2022

> <Institution>
Cyteir Therapeutics, Inc.

> <Link to Ligand in BindingDB>
http://www.bindingdb.org/bind/chemsearch/marvin/MolStructure.jsp?monomerid=546490

> <Link to Ligand-Target Pair in BindingDB>
http://www.bindingdb.org/jsp/dbsearch/PrimarySearch_ki.jsp?energyterm=kJ/mole&tag=pol&polymerid=4676&target=DNA+repair+protein+RAD51+homolog+1&column=ki&startPg=0&Increment=50&submit=Search

> <Link to Ligand-Target Pair in BindingDB>
http://www.bindingdb.org/jsp/dbsearch/PrimarySearch_ki.jsp?energyterm=kJ/mole&tag=r21&monomerid=546490&enzyme=DNA+repair+protein+RAD51+homolog+1&column=ki&startPg=0&Increment=50&submit=Search

> <Ligand HET ID in PDB>


> <PDB ID(s) for Ligand-Target Complex>


> <PubChem CID of Ligand>
137411888

> <PubChem SID of Ligand>
469681186

> <ChEBI ID of Ligand>


> <ChEMBL ID of Ligand>


> <DrugBank ID of Ligand>


> <IUPHAR_GRAC ID of Ligand>


> <KEGG ID of Ligand>


> <ZINC ID of Ligand>


> <Number of Protein Chains in Target (bigger than 1 implies a multichain complex)>
1

> <BindingDB Target Chain Sequence>
MAMQMQLEANADTSVEEESFGPQPISRLEQCGINANDVKKLEEAGFHTVEAVAYAPKKELINIKGISEAKADKILAEAAKLVPMGFTTATEFHQRRSEIIQITTGSKELDKLLQGGIETGSITEMFGEFRTGKTQICHTLAVTCQLPIDRGGGEGKAMYIDTEGTFRPERLLAVAERYGLSGSDVLDNVAYARAFNTDHQTQLLYQASAMMVESRYALLIVDSATALYRTDYSGRGELSARQMHLARFLRMLLRLADEFGVAVVITNQVVAQVDGAAMFAADPKKPIGGNIIAHASTTRLYLRKGRGETRICKIYDSPCLPEAEAMFAINADGVGDAKD

> <PDB ID(s) of Target Chain>
1N0W,5JZC,5NP7,5NWL,8BQ2,8BR2,8BSC

> <UniProt (SwissProt) Recommended Name of Target Chain>
DNA repair protein RAD51 homolog 1

> <UniProt (SwissProt) Entry Name of Target Chain>
RAD51_HUMAN

> <UniProt (SwissProt) Primary ID of Target Chain>
Q06609

> <UniProt (SwissProt) Secondary ID(s) of Target Chain>
B0FXP0 B2R8T6 Q6FHX9 Q6ZNA8 Q9BV60

> <UniProt (SwissProt) Alternative ID(s) of Target Chain>


> <UniProt (TrEMBL) Submitted Name of Target Chain>


> <UniProt (TrEMBL) Entry Name of Target Chain>


> <UniProt (TrEMBL) Primary ID of Target Chain>


> <UniProt (TrEMBL) Secondary ID(s) of Target Chain>


> <UniProt (TrEMBL) Alternative ID(s) of Target Chain>


$$$$
00353001.cdx
  Mrv0541 07212217012D          

 42 45  0  0  0  0            999 V2000
    0.0031    1.4788    0.0000 C   0  0  0  0  0  0  0  0  0  0  0  0
    0.0031    0.6538    0.0000 C   0  0  0  0  0  0  0  0  0  0  0  0
    0.7877    0.3989    0.0000 S   0  0  0  0  0  0  0  0  0  0  0  0
    1.2726    1.0663    0.0000 C   0  0  0  0  0  0  0  0  0  0  0  0
    0.7877    1.7338    0.0000 N   0  0  0  0  0  0  0  0  0  0  0  0
   -0.7114    0.2413    0.0000 C   0  0  0  0  0  0  0  0  0  0  0  0
   -1.4259    0.6538    0.0000 C   0  0  0  0  0  0  0  0  0  0  0  0
   -2.1404    0.2413    0.0000 C   0  0  0  0  0  0  0  0  0  0  0  0
   -2.1404   -0.5837    0.0000 C   0  0  0  0  0  0  0  0  0  0  0  0
   -1.4259   -0.9962    0.0000 C   0  0  0  0  0  0  0  0  0  0  0  0
   -0.7114   -0.5837    0.0000 C   0  0  0  0  0  0  0  0  0  0  0  0
    0.0031   -0.9962    0.0000 S   0  0  0  0  0  0  0  0  0  0  0  0
    0.7175   -1.4087    0.0000 N   0  0  0  0  0  0  0  0  0  0  0  0
    0.4156   -0.2817    0.0000 O   0  0  0  0  0  0  0  0  0  0  0  0
   -0.4094   -1.7106    0.0000 O   0  0  0  0  0  0  0  0  0  0  0  0
    1.4320   -0.9962    0.0000 C   0  0  0  0  0  0  0  0  0  0  0  0
    2.1465   -1.4087    0.0000 C   0  0  0  0  0  0  0  0  0  0  0  0
    1.4320   -0.1712    0.0000 C   0  0  0  0  0  0  0  0  0  0  0  0
    2.1465   -0.5837    0.0000 C   0  0  0  0  0  0  0  0  0  0  0  0
   -2.8548   -0.9962    0.0000 N   0  0  0  0  0  0  0  0  0  0  0  0
   -3.5693   -0.5837    0.0000 C   0  0  0  0  0  0  0  0  0  0  0  0
   -4.2838   -0.9962    0.0000 N   0  0  0  0  0  0  0  0  0  0  0  0
   -3.5693    0.2413    0.0000 O   0  0  0  0  0  0  0  0  0  0  0  0
   -4.9982   -0.5837    0.0000 C   0  0  0  0  0  0  0  0  0  0  0  0
    2.0976    1.0663    0.0000 C   0  0  0  0  0  0  0  0  0  0  0  0
    2.5101    0.3519    0.0000 C   0  0  0  0  0  0  0  0  0  0  0  0
    3.3351    0.3519    0.0000 C   0  0  0  0  0  0  0  0  0  0  0  0
    3.7476    1.0663    0.0000 C   0  0  0  0  0  0  0  0  0  0  0  0
    3.3351    1.7808    0.0000 C   0  0  0  0  0  0  0  0  0  0  0  0
    2.5101    1.7808    0.0000 C   0  0  0  0  0  0  0  0  0  0  0  0
    4.5726    1.0663    0.0000 N   0  0  0  0  0  0  0  0  0  0  0  0
    4.9851    0.3519    0.0000 C   0  0  0  0  0  0  0  0  0  0  0  0
    5.8101    0.3519    0.0000 N   0  0  0  0  0  0  0  0  0  0  0  0
    4.5726   -0.3626    0.0000 S   0  0  0  0  0  0  0  0  0  0  0  0
    6.2226    1.0663    0.0000 C   0  0  0  0  0  0  0  0  0  0  0  0
    7.0476    1.0663    0.0000 C   0  0  0  0  0  0  0  0  0  0  0  0
    5.8101    1.7808    0.0000 C   0  0  0  0  0  0  0  0  0  0  0  0
   -6.7927   -1.7808    0.0000 C   0  0  0  0  0  0  0  0  0  0  0  0
   -5.9677   -1.7808    0.0000 N   0  0  0  0  0  0  0  0  0  0  0  0
   -5.7127   -0.9962    0.0000 C   0  0  0  0  0  0  0  0  0  0  0  0
   -6.3802   -0.5113    0.0000 N   0  0  0  0  0  0  0  0  0  0  0  0
   -7.0476   -0.9962    0.0000 C   0  0  0  0  0  0  0  0  0  0  0  0
  1  2  4  0  0  0  0
  2  3  4  0  0  0  0
  3  4  4  0  0  0  0
  4  5  4  0  0  0  0
  5  1  4  0  0  0  0
  2  6  1  0  0  0  0
  6  7  4  0  0  0  0
  7  8  4  0  0  0  0
  8  9  4  0  0  0  0
  9 10  4  0  0  0  0
 10 11  4  0  0  0  0
 11  6  4  0  0  0  0
 11 12  1  0  0  0  0
 12 13  1  0  0  0  0
 12 14  2  0  0  0  0
 12 15  2  0  0  0  0
 13 16  1  0  0  0  0
 16 17  1  0  0  0  0
 16 18  1  0  0  0  0
 16 19  1  0  0  0  0
  9 20  1  0  0  0  0
 20 21  1  0  0  0  0
 21 22  1  0  0  0  0
 21 23  2  0  0  0  0
 22 24  1  0  0  0  0
 24 40  1  0  0  0  0
  4 25  1  0  0  0  0
 25 26  4  0  0  0  0
 26 27  4  0  0  0  0
 27 28  4  0  0  0  0
 28 29  4  0  0  0  0
 29 30  4  0  0  0  0
 30 25  4  0  0  0  0
 28 31  1  0  0  0  0
 31 32  1  0  0  0  0
 32 33  1  0  0  0  0
 32 34  2  0  0  0  0
 33 35  1  0  0  0  0
 35 36  1  0  0  0  0
 35 37  1  0  0  0  0
 38 39  4  0  0  0  0
 39 40  4  0  0  0  0
 40 41  4  0  0  0  0
 41 42  4  0  0  0  0
 42 38  4  0  0  0  0
M  STY  1   1 DAT
M  SAL   1  1  41
M  SDT   1 MRV_IMPLICIT_H                                        
M  SDD   1     0.0000    0.0000    DR    ALL  0       0  
M  SED   1 IMPL_H1
M  END
> <From>
www.bindingDB.org

> <BindingDB Reactant_set_id>
1155341

> <Ligand InChI>
InChI=1S/C28H34N8O3S3/c1-17(2)33-27(40)35-19-8-6-18(7-9-19)25-31-15-22(41-25)21-11-10-20(14-23(21)42(38,39)36-28(3,4)5)34-26(37)32-16-24-29-12-13-30-24/h6-15,17,36H,16H2,1-5H3,(H,29,30)(H2,32,34,37)(H2,33,35,40)

> <Ligand InChI Key>
UGULKPHTDGCRAC-UHFFFAOYSA-N

> <BindingDB MonomerID>
546491

> <BindingDB Ligand Name>
US11291655, No N5

> <Target Name>
DNA repair protein RAD51 homolog 1

> <Target Source Organism According to Curator or DataSource>
Homo sapiens

> <Ki (nM)>


> <IC50 (nM)>


> <Kd (nM)>


> <EC50 (nM)>
>10000

> <kon (M-1-s-1)>


> <koff (s-1)>


> <pH>


> <Temp C>


> <Curation/DataSource>
US Patent

> <Article DOI>


> <BindingDB Entry DOI>
10.7270/Q2NG4TV0

> <PMID>


> <PubChem AID>
aid1806421

> <Patent Number>
US11291655

> <Authors>
Castro, AC; McComas, CC; Vacca, J

> <Date of publication>
4/5/2022

> <Date in BindingDB>
7/21/2022

> <Institution>
Cyteir Therapeutics, Inc.

> <Link to Ligand in BindingDB>
http://www.bindingdb.org/bind/chemsearch/marvin/MolStructure.jsp?monomerid=546491

> <Link to Ligand-Target Pair in BindingDB>
http://www.bindingdb.org/jsp/dbsearch/PrimarySearch_ki.jsp?energyterm=kJ/mole&tag=pol&polymerid=4676&target=DNA+repair+protein+RAD51+homolog+1&column=ki&startPg=0&Increment=50&submit=Search

> <Link to Ligand-Target Pair in BindingDB>
http://www.bindingdb.org/jsp/dbsearch/PrimarySearch_ki.jsp?energyterm=kJ/mole&tag=r21&monomerid=546491&enzyme=DNA+repair+protein+RAD51+homolog+1&column=ki&startPg=0&Increment=50&submit=Search

> <Ligand HET ID in PDB>


> <PDB ID(s) for Ligand-Target Complex>


> <PubChem CID of Ligand>
137411720

> <PubChem SID of Ligand>
469681187

> <ChEBI ID of Ligand>


> <ChEMBL ID of Ligand>


> <DrugBank ID of Ligand>


> <IUPHAR_GRAC ID of Ligand>


> <KEGG ID of Ligand>


> <ZINC ID of Ligand>


> <Number of Protein Chains in Target (bigger than 1 implies a multichain complex)>
1

> <BindingDB Target Chain Sequence>
MAMQMQLEANADTSVEEESFGPQPISRLEQCGINANDVKKLEEAGFHTVEAVAYAPKKELINIKGISEAKADKILAEAAKLVPMGFTTATEFHQRRSEIIQITTGSKELDKLLQGGIETGSITEMFGEFRTGKTQICHTLAVTCQLPIDRGGGEGKAMYIDTEGTFRPERLLAVAERYGLSGSDVLDNVAYARAFNTDHQTQLLYQASAMMVESRYALLIVDSATALYRTDYSGRGELSARQMHLARFLRMLLRLADEFGVAVVITNQVVAQVDGAAMFAADPKKPIGGNIIAHASTTRLYLRKGRGETRICKIYDSPCLPEAEAMFAINADGVGDAKD

> <PDB ID(s) of Target Chain>
1N0W,5JZC,5NP7,5NWL,8BQ2,8BR2,8BSC

> <UniProt (SwissProt) Recommended Name of Target Chain>
DNA repair protein RAD51 homolog 1

> <UniProt (SwissProt) Entry Name of Target Chain>
RAD51_HUMAN

> <UniProt (SwissProt) Primary ID of Target Chain>
Q06609

> <UniProt (SwissProt) Secondary ID(s) of Target Chain>
B0FXP0 B2R8T6 Q6FHX9 Q6ZNA8 Q9BV60

> <UniProt (SwissProt) Alternative ID(s) of Target Chain>


> <UniProt (TrEMBL) Submitted Name of Target Chain>


> <UniProt (TrEMBL) Entry Name of Target Chain>


> <UniProt (TrEMBL) Primary ID of Target Chain>


> <UniProt (TrEMBL) Secondary ID(s) of Target Chain>


> <UniProt (TrEMBL) Alternative ID(s) of Target Chain>


$$$$
00354001.cdx
  Mrv0541 07212217012D          

 42 45  0  0  0  0            999 V2000
    0.0031    1.4788    0.0000 C   0  0  0  0  0  0  0  0  0  0  0  0
    0.0031    0.6538    0.0000 C   0  0  0  0  0  0  0  0  0  0  0  0
    0.7877    0.3989    0.0000 S   0  0  0  0  0  0  0  0  0  0  0  0
    1.2726    1.0663    0.0000 C   0  0  0  0  0  0  0  0  0  0  0  0
    0.7877    1.7338    0.0000 N   0  0  0  0  0  0  0  0  0  0  0  0
   -0.7114    0.2413    0.0000 C   0  0  0  0  0  0  0  0  0  0  0  0
   -1.4259    0.6538    0.0000 C   0  0  0  0  0  0  0  0  0  0  0  0
   -2.1404    0.2413    0.0000 C   0  0  0  0  0  0  0  0  0  0  0  0
   -2.1404   -0.5837    0.0000 C   0  0  0  0  0  0  0  0  0  0  0  0
   -1.4259   -0.9962    0.0000 C   0  0  0  0  0  0  0  0  0  0  0  0
   -0.7114   -0.5837    0.0000 C   0  0  0  0  0  0  0  0  0  0  0  0
    0.0031   -0.9962    0.0000 S   0  0  0  0  0  0  0  0  0  0  0  0
    0.7175   -1.4087    0.0000 N   0  0  0  0  0  0  0  0  0  0  0  0
    0.4156   -0.2817    0.0000 O   0  0  0  0  0  0  0  0  0  0  0  0
   -0.4094   -1.7106    0.0000 O   0  0  0  0  0  0  0  0  0  0  0  0
    1.4320   -0.9962    0.0000 C   0  0  0  0  0  0  0  0  0  0  0  0
    2.1465   -1.4087    0.0000 C   0  0  0  0  0  0  0  0  0  0  0  0
    1.4320   -0.1712    0.0000 C   0  0  0  0  0  0  0  0  0  0  0  0
    2.1465   -0.5837    0.0000 C   0  0  0  0  0  0  0  0  0  0  0  0
   -2.8548   -0.9962    0.0000 N   0  0  0  0  0  0  0  0  0  0  0  0
   -3.5693   -0.5837    0.0000 C   0  0  0  0  0  0  0  0  0  0  0  0
   -4.2838   -0.9962    0.0000 N   0  0  0  0  0  0  0  0  0  0  0  0
   -3.5693    0.2413    0.0000 O   0  0  0  0  0  0  0  0  0  0  0  0
   -4.9982   -0.5837    0.0000 C   0  0  0  0  0  0  0  0  0  0  0  0
    2.0976    1.0663    0.0000 C   0  0  0  0  0  0  0  0  0  0  0  0
    2.5101    0.3519    0.0000 C   0  0  0  0  0  0  0  0  0  0  0  0
    3.3351    0.3519    0.0000 C   0  0  0  0  0  0  0  0  0  0  0  0
    3.7476    1.0663    0.0000 C   0  0  0  0  0  0  0  0  0  0  0  0
    3.3351    1.7808    0.0000 C   0  0  0  0  0  0  0  0  0  0  0  0
    2.5101    1.7808    0.0000 C   0  0  0  0  0  0  0  0  0  0  0  0
    4.5726    1.0663    0.0000 N   0  0  0  0  0  0  0  0  0  0  0  0
    4.9851    0.3519    0.0000 C   0  0  0  0  0  0  0  0  0  0  0  0
    5.8101    0.3519    0.0000 N   0  0  0  0  0  0  0  0  0  0  0  0
    4.5726   -0.3626    0.0000 S   0  0  0  0  0  0  0  0  0  0  0  0
    6.2226    1.0663    0.0000 C   0  0  0  0  0  0  0  0  0  0  0  0
    7.0476    1.0663    0.0000 C   0  0  0  0  0  0  0  0  0  0  0  0
    5.8101    1.7808    0.0000 C   0  0  0  0  0  0  0  0  0  0  0  0
   -6.7927   -1.7808    0.0000 C   0  0  0  0  0  0  0  0  0  0  0  0
   -5.9677   -1.7808    0.0000 N   0  0  0  0  0  0  0  0  0  0  0  0
   -5.7127   -0.9962    0.0000 C   0  0  0  0  0  0  0  0  0  0  0  0
   -6.3802   -0.5113    0.0000 C   0  0  0  0  0  0  0  0  0  0  0  0
   -7.0476   -0.9962    0.0000 N   0  0  0  0  0  0  0  0  0  0  0  0
  1  2  4  0  0  0  0
  2  3  4  0  0  0  0
  3  4  4  0  0  0  0
  4  5  4  0  0  0  0
  5  1  4  0  0  0  0
  2  6  1  0  0  0  0
  6  7  4  0  0  0  0
  7  8  4  0  0  0  0
  8  9  4  0  0  0  0
  9 10  4  0  0  0  0
 10 11  4  0  0  0  0
 11  6  4  0  0  0  0
 11 12  1  0  0  0  0
 12 13  1  0  0  0  0
 12 14  2  0  0  0  0
 12 15  2  0  0  0  0
 13 16  1  0  0  0  0
 16 17  1  0  0  0  0
 16 18  1  0  0  0  0
 16 19  1  0  0  0  0
  9 20  1  0  0  0  0
 20 21  1  0  0  0  0
 21 22  1  0  0  0  0
 21 23  2  0  0  0  0
 22 24  1  0  0  0  0
 24 40  1  0  0  0  0
  4 25  1  0  0  0  0
 25 26  4  0  0  0  0
 26 27  4  0  0  0  0
 27 28  4  0  0  0  0
 28 29  4  0  0  0  0
 29 30  4  0  0  0  0
 30 25  4  0  0  0  0
 28 31  1  0  0  0  0
 31 32  1  0  0  0  0
 32 33  1  0  0  0  0
 32 34  2  0  0  0  0
 33 35  1  0  0  0  0
 35 36  1  0  0  0  0
 35 37  1  0  0  0  0
 38 39  4  0  0  0  0
 39 40  4  0  0  0  0
 40 41  4  0  0  0  0
 41 42  4  0  0  0  0
 42 38  4  0  0  0  0
M  STY  1   1 DAT
M  SAL   1  1  39
M  SDT   1 MRV_IMPLICIT_H                                        
M  SDD   1     0.0000    0.0000    DR    ALL  0       0  
M  SED   1 IMPL_H1
M  END
> <From>
www.bindingDB.org

> <BindingDB Reactant_set_id>
1155342

> <Ligand InChI>
InChI=1S/C28H34N8O3S3/c1-17(2)33-27(40)35-19-8-6-18(7-9-19)25-30-15-23(41-25)22-11-10-20(12-24(22)42(38,39)36-28(3,4)5)34-26(37)31-14-21-13-29-16-32-21/h6-13,15-17,36H,14H2,1-5H3,(H,29,32)(H2,31,34,37)(H2,33,35,40)

> <Ligand InChI Key>
SVLLWDSJQJKHJV-UHFFFAOYSA-N

> <BindingDB MonomerID>
546492

> <BindingDB Ligand Name>
US11291655, No N6

> <Target Name>
DNA repair protein RAD51 homolog 1

> <Target Source Organism According to Curator or DataSource>
Homo sapiens

> <Ki (nM)>


> <IC50 (nM)>


> <Kd (nM)>


> <EC50 (nM)>
<10000

> <kon (M-1-s-1)>


> <koff (s-1)>


> <pH>


> <Temp C>


> <Curation/DataSource>
US Patent

> <Article DOI>


> <BindingDB Entry DOI>
10.7270/Q2NG4TV0

> <PMID>


> <PubChem AID>
aid1806421

> <Patent Number>
US11291655

> <Authors>
Castro, AC; McComas, CC; Vacca, J

> <Date of publication>
4/5/2022

> <Date in BindingDB>
7/21/2022

> <Institution>
Cyteir Therapeutics, Inc.

> <Link to Ligand in BindingDB>
http://www.bindingdb.org/bind/chemsearch/marvin/MolStructure.jsp?monomerid=546492

> <Link to Ligand-Target Pair in BindingDB>
http://www.bindingdb.org/jsp/dbsearch/PrimarySearch_ki.jsp?energyterm=kJ/mole&tag=pol&polymerid=4676&target=DNA+repair+protein+RAD51+homolog+1&column=ki&startPg=0&Increment=50&submit=Search

> <Link to Ligand-Target Pair in BindingDB>
http://www.bindingdb.org/jsp/dbsearch/PrimarySearch_ki.jsp?energyterm=kJ/mole&tag=r21&monomerid=546492&enzyme=DNA+repair+protein+RAD51+homolog+1&column=ki&startPg=0&Increment=50&submit=Search

> <Ligand HET ID in PDB>


> <PDB ID(s) for Ligand-Target Complex>


> <PubChem CID of Ligand>
137411913

> <PubChem SID of Ligand>
469681188

> <ChEBI ID of Ligand>


> <ChEMBL ID of Ligand>


> <DrugBank ID of Ligand>


> <IUPHAR_GRAC ID of Ligand>


> <KEGG ID of Ligand>


> <ZINC ID of Ligand>


> <Number of Protein Chains in Target (bigger than 1 implies a multichain complex)>
1

> <BindingDB Target Chain Sequence>
MAMQMQLEANADTSVEEESFGPQPISRLEQCGINANDVKKLEEAGFHTVEAVAYAPKKELINIKGISEAKADKILAEAAKLVPMGFTTATEFHQRRSEIIQITTGSKELDKLLQGGIETGSITEMFGEFRTGKTQICHTLAVTCQLPIDRGGGEGKAMYIDTEGTFRPERLLAVAERYGLSGSDVLDNVAYARAFNTDHQTQLLYQASAMMVESRYALLIVDSATALYRTDYSGRGELSARQMHLARFLRMLLRLADEFGVAVVITNQVVAQVDGAAMFAADPKKPIGGNIIAHASTTRLYLRKGRGETRICKIYDSPCLPEAEAMFAINADGVGDAKD

> <PDB ID(s) of Target Chain>
1N0W,5JZC,5NP7,5NWL,8BQ2,8BR2,8BSC

> <UniProt (SwissProt) Recommended Name of Target Chain>
DNA repair protein RAD51 homolog 1

> <UniProt (SwissProt) Entry Name of Target Chain>
RAD51_HUMAN

> <UniProt (SwissProt) Primary ID of Target Chain>
Q06609

> <UniProt (SwissProt) Secondary ID(s) of Target Chain>
B0FXP0 B2R8T6 Q6FHX9 Q6ZNA8 Q9BV60

> <UniProt (SwissProt) Alternative ID(s) of Target Chain>


> <UniProt (TrEMBL) Submitted Name of Target Chain>


> <UniProt (TrEMBL) Entry Name of Target Chain>


> <UniProt (TrEMBL) Primary ID of Target Chain>


> <UniProt (TrEMBL) Secondary ID(s) of Target Chain>


> <UniProt (TrEMBL) Alternative ID(s) of Target Chain>


$$$$
00355001.cdx
  Mrv0541 07212217012D          

 42 45  0  0  0  0            999 V2000
   -0.3072    2.2703    0.0000 C   0  0  0  0  0  0  0  0  0  0  0  0
   -0.3072    1.4453    0.0000 C   0  0  0  0  0  0  0  0  0  0  0  0
    0.4775    1.1904    0.0000 S   0  0  0  0  0  0  0  0  0  0  0  0
    0.9624    1.8578    0.0000 C   0  0  0  0  0  0  0  0  0  0  0  0
    0.4775    2.5253    0.0000 N   0  0  0  0  0  0  0  0  0  0  0  0
   -1.0216    1.0328    0.0000 C   0  0  0  0  0  0  0  0  0  0  0  0
   -1.7361    1.4453    0.0000 C   0  0  0  0  0  0  0  0  0  0  0  0
   -2.4506    1.0328    0.0000 C   0  0  0  0  0  0  0  0  0  0  0  0
   -2.4506    0.2078    0.0000 C   0  0  0  0  0  0  0  0  0  0  0  0
   -1.7361   -0.2047    0.0000 C   0  0  0  0  0  0  0  0  0  0  0  0
   -1.0216    0.2078    0.0000 C   0  0  0  0  0  0  0  0  0  0  0  0
   -0.3072   -0.2047    0.0000 S   0  0  0  0  0  0  0  0  0  0  0  0
    0.4073   -0.6172    0.0000 N   0  0  0  0  0  0  0  0  0  0  0  0
    0.1053    0.5098    0.0000 O   0  0  0  0  0  0  0  0  0  0  0  0
   -0.7197   -0.9192    0.0000 O   0  0  0  0  0  0  0  0  0  0  0  0
    1.1218   -0.2047    0.0000 C   0  0  0  0  0  0  0  0  0  0  0  0
    1.8363   -0.6172    0.0000 C   0  0  0  0  0  0  0  0  0  0  0  0
    1.1218    0.6203    0.0000 C   0  0  0  0  0  0  0  0  0  0  0  0
    1.8363    0.2078    0.0000 C   0  0  0  0  0  0  0  0  0  0  0  0
   -3.1650   -0.2047    0.0000 C   0  0  0  0  0  0  0  0  0  0  0  0
   -3.8795    0.2078    0.0000 N   0  0  0  0  0  0  0  0  0  0  0  0
   -4.5940   -0.2047    0.0000 C   0  0  0  0  0  0  0  0  0  0  0  0
   -5.3084    0.2078    0.0000 C   0  0  0  0  0  0  0  0  0  0  0  0
    1.7874    1.8578    0.0000 C   0  0  0  0  0  0  0  0  0  0  0  0
    2.1999    1.1433    0.0000 C   0  0  0  0  0  0  0  0  0  0  0  0
    3.0249    1.1433    0.0000 C   0  0  0  0  0  0  0  0  0  0  0  0
    3.4374    1.8578    0.0000 C   0  0  0  0  0  0  0  0  0  0  0  0
    3.0249    2.5723    0.0000 C   0  0  0  0  0  0  0  0  0  0  0  0
    2.1999    2.5723    0.0000 C   0  0  0  0  0  0  0  0  0  0  0  0
    4.2624    1.8578    0.0000 N   0  0  0  0  0  0  0  0  0  0  0  0
    4.6749    1.1433    0.0000 C   0  0  0  0  0  0  0  0  0  0  0  0
    5.4999    1.1433    0.0000 O   0  0  0  0  0  0  0  0  0  0  0  0
    4.2624    0.4289    0.0000 O   0  0  0  0  0  0  0  0  0  0  0  0
    5.9124    1.8578    0.0000 C   0  0  0  0  0  0  0  0  0  0  0  0
    6.7374    1.8578    0.0000 C   0  0  0  0  0  0  0  0  0  0  0  0
    5.4999    2.5723    0.0000 C   0  0  0  0  0  0  0  0  0  0  0  0
   -4.5940   -1.0297    0.0000 O   0  0  0  0  0  0  0  0  0  0  0  0
   -5.3084    1.0328    0.0000 C   0  0  0  0  0  0  0  0  0  0  0  0
   -6.0229    1.4453    0.0000 C   0  0  0  0  0  0  0  0  0  0  0  0
   -6.7374    1.0328    0.0000 N   0  0  0  0  0  0  0  0  0  0  0  0
   -6.7374    0.2078    0.0000 C   0  0  0  0  0  0  0  0  0  0  0  0
   -6.0229   -0.2047    0.0000 C   0  0  0  0  0  0  0  0  0  0  0  0
  1  2  4  0  0  0  0
  2  3  4  0  0  0  0
  3  4  4  0  0  0  0
  4  5  4  0  0  0  0
  5  1  4  0  0  0  0
  2  6  1  0  0  0  0
  6  7  4  0  0  0  0
  7  8  4  0  0  0  0
  8  9  4  0  0  0  0
  9 10  4  0  0  0  0
 10 11  4  0  0  0  0
 11  6  4  0  0  0  0
 11 12  1  0  0  0  0
 12 13  1  0  0  0  0
 12 14  2  0  0  0  0
 12 15  2  0  0  0  0
 13 16  1  0  0  0  0
 16 17  1  0  0  0  0
 16 18  1  0  0  0  0
 16 19  1  0  0  0  0
  9 20  1  0  0  0  0
 20 21  1  0  0  0  0
 22 23  1  0  0  0  0
  4 24  1  0  0  0  0
 24 25  4  0  0  0  0
 25 26  4  0  0  0  0
 26 27  4  0  0  0  0
 27 28  4  0  0  0  0
 28 29  4  0  0  0  0
 29 24  4  0  0  0  0
 27 30  1  0  0  0  0
 30 31  1  0  0  0  0
 31 32  1  0  0  0  0
 31 33  2  0  0  0  0
 32 34  1  0  0  0  0
 34 35  1  0  0  0  0
 34 36  1  0  0  0  0
 21 22  1  0  0  0  0
 22 37  2  0  0  0  0
 23 38  1  0  0  0  0
 38 39  1  0  0  0  0
 39 40  1  0  0  0  0
 40 41  1  0  0  0  0
 41 42  1  0  0  0  0
 42 23  1  0  0  0  0
M  END
> <From>
www.bindingDB.org

> <BindingDB Reactant_set_id>
1155343

> <Ligand InChI>
InChI=1S/C30H39N5O5S2/c1-19(2)40-29(37)34-23-9-7-22(8-10-23)28-33-18-25(41-28)24-11-6-20(16-26(24)42(38,39)35-30(3,4)5)17-32-27(36)21-12-14-31-15-13-21/h6-11,16,18-19,21,31,35H,12-15,17H2,1-5H3,(H,32,36)(H,34,37)

> <Ligand InChI Key>
LWOXTUIGUZIVLT-UHFFFAOYSA-N

> <BindingDB MonomerID>
546493

> <BindingDB Ligand Name>
US11291655, No O1

> <Target Name>
DNA repair protein RAD51 homolog 1

> <Target Source Organism According to Curator or DataSource>
Homo sapiens

> <Ki (nM)>


> <IC50 (nM)>


> <Kd (nM)>


> <EC50 (nM)>
<10000

> <kon (M-1-s-1)>


> <koff (s-1)>


> <pH>


> <Temp C>


> <Curation/DataSource>
US Patent

> <Article DOI>


> <BindingDB Entry DOI>
10.7270/Q2NG4TV0

> <PMID>


> <PubChem AID>
aid1806421

> <Patent Number>
US11291655

> <Authors>
Castro, AC; McComas, CC; Vacca, J

> <Date of publication>
4/5/2022

> <Date in BindingDB>
7/21/2022

> <Institution>
Cyteir Therapeutics, Inc.

> <Link to Ligand in BindingDB>
http://www.bindingdb.org/bind/chemsearch/marvin/MolStructure.jsp?monomerid=546493

> <Link to Ligand-Target Pair in BindingDB>
http://www.bindingdb.org/jsp/dbsearch/PrimarySearch_ki.jsp?energyterm=kJ/mole&tag=pol&polymerid=4676&target=DNA+repair+protein+RAD51+homolog+1&column=ki&startPg=0&Increment=50&submit=Search

> <Link to Ligand-Target Pair in BindingDB>
http://www.bindingdb.org/jsp/dbsearch/PrimarySearch_ki.jsp?energyterm=kJ/mole&tag=r21&monomerid=546493&enzyme=DNA+repair+protein+RAD51+homolog+1&column=ki&startPg=0&Increment=50&submit=Search

> <Ligand HET ID in PDB>


> <PDB ID(s) for Ligand-Target Complex>


> <PubChem CID of Ligand>
137411911

> <PubChem SID of Ligand>
469681189

> <ChEBI ID of Ligand>


> <ChEMBL ID of Ligand>


> <DrugBank ID of Ligand>


> <IUPHAR_GRAC ID of Ligand>


> <KEGG ID of Ligand>


> <ZINC ID of Ligand>


> <Number of Protein Chains in Target (bigger than 1 implies a multichain complex)>
1

> <BindingDB Target Chain Sequence>
MAMQMQLEANADTSVEEESFGPQPISRLEQCGINANDVKKLEEAGFHTVEAVAYAPKKELINIKGISEAKADKILAEAAKLVPMGFTTATEFHQRRSEIIQITTGSKELDKLLQGGIETGSITEMFGEFRTGKTQICHTLAVTCQLPIDRGGGEGKAMYIDTEGTFRPERLLAVAERYGLSGSDVLDNVAYARAFNTDHQTQLLYQASAMMVESRYALLIVDSATALYRTDYSGRGELSARQMHLARFLRMLLRLADEFGVAVVITNQVVAQVDGAAMFAADPKKPIGGNIIAHASTTRLYLRKGRGETRICKIYDSPCLPEAEAMFAINADGVGDAKD

> <PDB ID(s) of Target Chain>
1N0W,5JZC,5NP7,5NWL,8BQ2,8BR2,8BSC

> <UniProt (SwissProt) Recommended Name of Target Chain>
DNA repair protein RAD51 homolog 1

> <UniProt (SwissProt) Entry Name of Target Chain>
RAD51_HUMAN

> <UniProt (SwissProt) Primary ID of Target Chain>
Q06609

> <UniProt (SwissProt) Secondary ID(s) of Target Chain>
B0FXP0 B2R8T6 Q6FHX9 Q6ZNA8 Q9BV60

> <UniProt (SwissProt) Alternative ID(s) of Target Chain>


> <UniProt (TrEMBL) Submitted Name of Target Chain>


> <UniProt (TrEMBL) Entry Name of Target Chain>


> <UniProt (TrEMBL) Primary ID of Target Chain>


> <UniProt (TrEMBL) Secondary ID(s) of Target Chain>


> <UniProt (TrEMBL) Alternative ID(s) of Target Chain>


$$$$
00357001.cdx
  Mrv0541 07212217012D          

 40 42  0  0  0  0            999 V2000
    0.0501    1.4990    0.0000 C   0  0  0  0  0  0  0  0  0  0  0  0
    0.0501    0.6740    0.0000 C   0  0  0  0  0  0  0  0  0  0  0  0
    0.8347    0.4191    0.0000 S   0  0  0  0  0  0  0  0  0  0  0  0
    1.3196    1.0865    0.0000 C   0  0  0  0  0  0  0  0  0  0  0  0
    0.8347    1.7540    0.0000 N   0  0  0  0  0  0  0  0  0  0  0  0
   -0.6644    0.2615    0.0000 C   0  0  0  0  0  0  0  0  0  0  0  0
   -1.3789    0.6740    0.0000 C   0  0  0  0  0  0  0  0  0  0  0  0
   -2.0933    0.2615    0.0000 C   0  0  0  0  0  0  0  0  0  0  0  0
   -2.0933   -0.5635    0.0000 C   0  0  0  0  0  0  0  0  0  0  0  0
   -1.3789   -0.9760    0.0000 C   0  0  0  0  0  0  0  0  0  0  0  0
   -0.6644   -0.5635    0.0000 C   0  0  0  0  0  0  0  0  0  0  0  0
    0.0501   -0.9760    0.0000 S   0  0  0  0  0  0  0  0  0  0  0  0
    0.7646   -1.3885    0.0000 N   0  0  0  0  0  0  0  0  0  0  0  0
    0.4626   -0.2615    0.0000 O   0  0  0  0  0  0  0  0  0  0  0  0
   -0.3624   -1.6905    0.0000 O   0  0  0  0  0  0  0  0  0  0  0  0
    1.4790   -0.9760    0.0000 C   0  0  0  0  0  0  0  0  0  0  0  0
    2.1935   -1.3885    0.0000 C   0  0  0  0  0  0  0  0  0  0  0  0
    1.4790   -0.1510    0.0000 C   0  0  0  0  0  0  0  0  0  0  0  0
    2.1935   -0.5635    0.0000 C   0  0  0  0  0  0  0  0  0  0  0  0
   -2.8078   -0.9760    0.0000 C   0  0  0  0  0  0  0  0  0  0  0  0
   -3.5223   -0.5635    0.0000 N   0  0  0  0  0  0  0  0  0  0  0  0
   -4.2367   -0.9760    0.0000 C   0  0  0  0  0  0  0  0  0  0  0  0
   -4.9512   -0.5635    0.0000 C   0  0  0  0  0  0  0  0  0  0  0  0
    2.1446    1.0865    0.0000 C   0  0  0  0  0  0  0  0  0  0  0  0
    2.5571    0.3720    0.0000 C   0  0  0  0  0  0  0  0  0  0  0  0
    3.3821    0.3720    0.0000 C   0  0  0  0  0  0  0  0  0  0  0  0
    3.7946    1.0865    0.0000 C   0  0  0  0  0  0  0  0  0  0  0  0
    3.3821    1.8010    0.0000 C   0  0  0  0  0  0  0  0  0  0  0  0
    2.5571    1.8010    0.0000 C   0  0  0  0  0  0  0  0  0  0  0  0
    4.6196    1.0865    0.0000 N   0  0  0  0  0  0  0  0  0  0  0  0
    5.0321    0.3720    0.0000 C   0  0  0  0  0  0  0  0  0  0  0  0
    5.8571    0.3720    0.0000 O   0  0  0  0  0  0  0  0  0  0  0  0
    4.6196   -0.3424    0.0000 O   0  0  0  0  0  0  0  0  0  0  0  0
    6.2696    1.0865    0.0000 C   0  0  0  0  0  0  0  0  0  0  0  0
    7.0946    1.0865    0.0000 C   0  0  0  0  0  0  0  0  0  0  0  0
    5.8571    1.8010    0.0000 C   0  0  0  0  0  0  0  0  0  0  0  0
   -5.6657   -0.9760    0.0000 C   0  0  0  0  0  0  0  0  0  0  0  0
   -4.2367   -1.8010    0.0000 O   0  0  0  0  0  0  0  0  0  0  0  0
   -6.3802   -0.5635    0.0000 O   0  0  0  0  0  0  0  0  0  0  0  0
   -7.0946   -0.9760    0.0000 C   0  0  0  0  0  0  0  0  0  0  0  0
  1  2  4  0  0  0  0
  2  3  4  0  0  0  0
  3  4  4  0  0  0  0
  4  5  4  0  0  0  0
  5  1  4  0  0  0  0
  2  6  1  0  0  0  0
  6  7  4  0  0  0  0
  7  8  4  0  0  0  0
  8  9  4  0  0  0  0
  9 10  4  0  0  0  0
 10 11  4  0  0  0  0
 11  6  4  0  0  0  0
 11 12  1  0  0  0  0
 12 13  1  0  0  0  0
 12 14  2  0  0  0  0
 12 15  2  0  0  0  0
 13 16  1  0  0  0  0
 16 17  1  0  0  0  0
 16 18  1  0  0  0  0
 16 19  1  0  0  0  0
  9 20  1  0  0  0  0
 20 21  1  0  0  0  0
 21 22  1  0  0  0  0
 22 23  1  0  0  0  0
 23 37  1  0  0  0  0
  4 24  1  0  0  0  0
 24 25  4  0  0  0  0
 25 26  4  0  0  0  0
 26 27  4  0  0  0  0
 27 28  4  0  0  0  0
 28 29  4  0  0  0  0
 29 24  4  0  0  0  0
 27 30  1  0  0  0  0
 30 31  1  0  0  0  0
 31 32  1  0  0  0  0
 31 33  2  0  0  0  0
 32 34  1  0  0  0  0
 34 35  1  0  0  0  0
 34 36  1  0  0  0  0
 22 38  2  0  0  0  0
 37 39  1  0  0  0  0
 39 40  1  0  0  0  0
M  END
> <From>
www.bindingDB.org

> <BindingDB Reactant_set_id>
1155344

> <Ligand InChI>
InChI=1S/C28H36N4O6S2/c1-18(2)38-27(34)31-21-10-8-20(9-11-21)26-30-17-23(39-26)22-12-7-19(16-29-25(33)13-14-37-6)15-24(22)40(35,36)32-28(3,4)5/h7-12,15,17-18,32H,13-14,16H2,1-6H3,(H,29,33)(H,31,34)

> <Ligand InChI Key>
GNRNDIRQUQYTFK-UHFFFAOYSA-N

> <BindingDB MonomerID>
546494

> <BindingDB Ligand Name>
US11291655, No O2

> <Target Name>
DNA repair protein RAD51 homolog 1

> <Target Source Organism According to Curator or DataSource>
Homo sapiens

> <Ki (nM)>


> <IC50 (nM)>


> <Kd (nM)>


> <EC50 (nM)>
>10000

> <kon (M-1-s-1)>


> <koff (s-1)>


> <pH>


> <Temp C>


> <Curation/DataSource>
US Patent

> <Article DOI>


> <BindingDB Entry DOI>
10.7270/Q2NG4TV0

> <PMID>


> <PubChem AID>
aid1806421

> <Patent Number>
US11291655

> <Authors>
Castro, AC; McComas, CC; Vacca, J

> <Date of publication>
4/5/2022

> <Date in BindingDB>
7/21/2022

> <Institution>
Cyteir Therapeutics, Inc.

> <Link to Ligand in BindingDB>
http://www.bindingdb.org/bind/chemsearch/marvin/MolStructure.jsp?monomerid=546494

> <Link to Ligand-Target Pair in BindingDB>
http://www.bindingdb.org/jsp/dbsearch/PrimarySearch_ki.jsp?energyterm=kJ/mole&tag=pol&polymerid=4676&target=DNA+repair+protein+RAD51+homolog+1&column=ki&startPg=0&Increment=50&submit=Search

> <Link to Ligand-Target Pair in BindingDB>
http://www.bindingdb.org/jsp/dbsearch/PrimarySearch_ki.jsp?energyterm=kJ/mole&tag=r21&monomerid=546494&enzyme=DNA+repair+protein+RAD51+homolog+1&column=ki&startPg=0&Increment=50&submit=Search

> <Ligand HET ID in PDB>


> <PDB ID(s) for Ligand-Target Complex>


> <PubChem CID of Ligand>
137411916

> <PubChem SID of Ligand>
469681190

> <ChEBI ID of Ligand>


> <ChEMBL ID of Ligand>


> <DrugBank ID of Ligand>


> <IUPHAR_GRAC ID of Ligand>


> <KEGG ID of Ligand>


> <ZINC ID of Ligand>


> <Number of Protein Chains in Target (bigger than 1 implies a multichain complex)>
1

> <BindingDB Target Chain Sequence>
MAMQMQLEANADTSVEEESFGPQPISRLEQCGINANDVKKLEEAGFHTVEAVAYAPKKELINIKGISEAKADKILAEAAKLVPMGFTTATEFHQRRSEIIQITTGSKELDKLLQGGIETGSITEMFGEFRTGKTQICHTLAVTCQLPIDRGGGEGKAMYIDTEGTFRPERLLAVAERYGLSGSDVLDNVAYARAFNTDHQTQLLYQASAMMVESRYALLIVDSATALYRTDYSGRGELSARQMHLARFLRMLLRLADEFGVAVVITNQVVAQVDGAAMFAADPKKPIGGNIIAHASTTRLYLRKGRGETRICKIYDSPCLPEAEAMFAINADGVGDAKD

> <PDB ID(s) of Target Chain>
1N0W,5JZC,5NP7,5NWL,8BQ2,8BR2,8BSC

> <UniProt (SwissProt) Recommended Name of Target Chain>
DNA repair protein RAD51 homolog 1

> <UniProt (SwissProt) Entry Name of Target Chain>
RAD51_HUMAN

> <UniProt (SwissProt) Primary ID of Target Chain>
Q06609

> <UniProt (SwissProt) Secondary ID(s) of Target Chain>
B0FXP0 B2R8T6 Q6FHX9 Q6ZNA8 Q9BV60

> <UniProt (SwissProt) Alternative ID(s) of Target Chain>


> <UniProt (TrEMBL) Submitted Name of Target Chain>


> <UniProt (TrEMBL) Entry Name of Target Chain>


> <UniProt (TrEMBL) Primary ID of Target Chain>


> <UniProt (TrEMBL) Secondary ID(s) of Target Chain>


> <UniProt (TrEMBL) Alternative ID(s) of Target Chain>


$$$$
00358001.cdx
  Mrv0541 07212217012D          

 39 41  0  0  0  0            999 V2000
   -0.3072    1.4990    0.0000 C   0  0  0  0  0  0  0  0  0  0  0  0
   -0.3072    0.6740    0.0000 C   0  0  0  0  0  0  0  0  0  0  0  0
    0.4775    0.4191    0.0000 S   0  0  0  0  0  0  0  0  0  0  0  0
    0.9624    1.0865    0.0000 C   0  0  0  0  0  0  0  0  0  0  0  0
    0.4775    1.7540    0.0000 N   0  0  0  0  0  0  0  0  0  0  0  0
   -1.0216    0.2615    0.0000 C   0  0  0  0  0  0  0  0  0  0  0  0
   -1.7361    0.6740    0.0000 C   0  0  0  0  0  0  0  0  0  0  0  0
   -2.4506    0.2615    0.0000 C   0  0  0  0  0  0  0  0  0  0  0  0
   -2.4506   -0.5635    0.0000 C   0  0  0  0  0  0  0  0  0  0  0  0
   -1.7361   -0.9760    0.0000 C   0  0  0  0  0  0  0  0  0  0  0  0
   -1.0216   -0.5635    0.0000 C   0  0  0  0  0  0  0  0  0  0  0  0
   -0.3072   -0.9760    0.0000 S   0  0  0  0  0  0  0  0  0  0  0  0
    0.4073   -1.3885    0.0000 N   0  0  0  0  0  0  0  0  0  0  0  0
    0.1053   -0.2615    0.0000 O   0  0  0  0  0  0  0  0  0  0  0  0
   -0.7197   -1.6905    0.0000 O   0  0  0  0  0  0  0  0  0  0  0  0
    1.1218   -0.9760    0.0000 C   0  0  0  0  0  0  0  0  0  0  0  0
    1.8363   -1.3885    0.0000 C   0  0  0  0  0  0  0  0  0  0  0  0
    1.1218   -0.1510    0.0000 C   0  0  0  0  0  0  0  0  0  0  0  0
    1.8363   -0.5635    0.0000 C   0  0  0  0  0  0  0  0  0  0  0  0
   -3.1650   -0.9760    0.0000 C   0  0  0  0  0  0  0  0  0  0  0  0
   -3.8795   -0.5635    0.0000 N   0  0  0  0  0  0  0  0  0  0  0  0
   -4.5940   -0.9760    0.0000 C   0  0  0  0  0  0  0  0  0  0  0  0
   -5.3084   -0.5635    0.0000 C   0  0  0  0  0  0  0  0  0  0  0  0
    1.7874    1.0865    0.0000 C   0  0  0  0  0  0  0  0  0  0  0  0
    2.1999    0.3720    0.0000 C   0  0  0  0  0  0  0  0  0  0  0  0
    3.0249    0.3720    0.0000 C   0  0  0  0  0  0  0  0  0  0  0  0
    3.4374    1.0865    0.0000 C   0  0  0  0  0  0  0  0  0  0  0  0
    3.0249    1.8010    0.0000 C   0  0  0  0  0  0  0  0  0  0  0  0
    2.1999    1.8010    0.0000 C   0  0  0  0  0  0  0  0  0  0  0  0
    4.2624    1.0865    0.0000 N   0  0  0  0  0  0  0  0  0  0  0  0
    4.6749    0.3720    0.0000 C   0  0  0  0  0  0  0  0  0  0  0  0
    5.4999    0.3720    0.0000 O   0  0  0  0  0  0  0  0  0  0  0  0
    4.2624   -0.3424    0.0000 O   0  0  0  0  0  0  0  0  0  0  0  0
    5.9124    1.0865    0.0000 C   0  0  0  0  0  0  0  0  0  0  0  0
    6.7374    1.0865    0.0000 C   0  0  0  0  0  0  0  0  0  0  0  0
    5.4999    1.8010    0.0000 C   0  0  0  0  0  0  0  0  0  0  0  0
   -6.0229   -0.9760    0.0000 C   0  0  0  0  0  0  0  0  0  0  0  0
   -6.7374   -0.5635    0.0000 O   0  0  0  0  0  0  0  0  0  0  0  0
   -4.5940   -1.8010    0.0000 O   0  0  0  0  0  0  0  0  0  0  0  0
  1  2  4  0  0  0  0
  2  3  4  0  0  0  0
  3  4  4  0  0  0  0
  4  5  4  0  0  0  0
  5  1  4  0  0  0  0
  2  6  1  0  0  0  0
  6  7  4  0  0  0  0
  7  8  4  0  0  0  0
  8  9  4  0  0  0  0
  9 10  4  0  0  0  0
 10 11  4  0  0  0  0
 11  6  4  0  0  0  0
 11 12  1  0  0  0  0
 12 13  1  0  0  0  0
 12 14  2  0  0  0  0
 12 15  2  0  0  0  0
 13 16  1  0  0  0  0
 16 17  1  0  0  0  0
 16 18  1  0  0  0  0
 16 19  1  0  0  0  0
  9 20  1  0  0  0  0
 20 21  1  0  0  0  0
 21 22  1  0  0  0  0
 22 23  1  0  0  0  0
 23 37  1  0  0  0  0
  4 24  1  0  0  0  0
 24 25  4  0  0  0  0
 25 26  4  0  0  0  0
 26 27  4  0  0  0  0
 27 28  4  0  0  0  0
 28 29  4  0  0  0  0
 29 24  4  0  0  0  0
 27 30  1  0  0  0  0
 30 31  1  0  0  0  0
 31 32  1  0  0  0  0
 31 33  2  0  0  0  0
 32 34  1  0  0  0  0
 34 35  1  0  0  0  0
 34 36  1  0  0  0  0
 37 38  1  0  0  0  0
 22 39  2  0  0  0  0
M  END
> <From>
www.bindingDB.org

> <BindingDB Reactant_set_id>
1155345

> <Ligand InChI>
InChI=1S/C27H34N4O6S2/c1-17(2)37-26(34)30-20-9-7-19(8-10-20)25-29-16-22(38-25)21-11-6-18(15-28-24(33)12-13-32)14-23(21)39(35,36)31-27(3,4)5/h6-11,14,16-17,31-32H,12-13,15H2,1-5H3,(H,28,33)(H,30,34)

> <Ligand InChI Key>
LCXXYSGHOLDWGF-UHFFFAOYSA-N

> <BindingDB MonomerID>
546495

> <BindingDB Ligand Name>
US11291655, No O3

> <Target Name>
DNA repair protein RAD51 homolog 1

> <Target Source Organism According to Curator or DataSource>
Homo sapiens

> <Ki (nM)>


> <IC50 (nM)>


> <Kd (nM)>


> <EC50 (nM)>
>10000

> <kon (M-1-s-1)>


> <koff (s-1)>


> <pH>


> <Temp C>


> <Curation/DataSource>
US Patent

> <Article DOI>


> <BindingDB Entry DOI>
10.7270/Q2NG4TV0

> <PMID>


> <PubChem AID>
aid1806421

> <Patent Number>
US11291655

> <Authors>
Castro, AC; McComas, CC; Vacca, J

> <Date of publication>
4/5/2022

> <Date in BindingDB>
7/21/2022

> <Institution>
Cyteir Therapeutics, Inc.

> <Link to Ligand in BindingDB>
http://www.bindingdb.org/bind/chemsearch/marvin/MolStructure.jsp?monomerid=546495

> <Link to Ligand-Target Pair in BindingDB>
http://www.bindingdb.org/jsp/dbsearch/PrimarySearch_ki.jsp?energyterm=kJ/mole&tag=pol&polymerid=4676&target=DNA+repair+protein+RAD51+homolog+1&column=ki&startPg=0&Increment=50&submit=Search

> <Link to Ligand-Target Pair in BindingDB>
http://www.bindingdb.org/jsp/dbsearch/PrimarySearch_ki.jsp?energyterm=kJ/mole&tag=r21&monomerid=546495&enzyme=DNA+repair+protein+RAD51+homolog+1&column=ki&startPg=0&Increment=50&submit=Search

> <Ligand HET ID in PDB>


> <PDB ID(s) for Ligand-Target Complex>


> <PubChem CID of Ligand>
137411985

> <PubChem SID of Ligand>
469681191

> <ChEBI ID of Ligand>


> <ChEMBL ID of Ligand>


> <DrugBank ID of Ligand>


> <IUPHAR_GRAC ID of Ligand>


> <KEGG ID of Ligand>


> <ZINC ID of Ligand>


> <Number of Protein Chains in Target (bigger than 1 implies a multichain complex)>
1

> <BindingDB Target Chain Sequence>
MAMQMQLEANADTSVEEESFGPQPISRLEQCGINANDVKKLEEAGFHTVEAVAYAPKKELINIKGISEAKADKILAEAAKLVPMGFTTATEFHQRRSEIIQITTGSKELDKLLQGGIETGSITEMFGEFRTGKTQICHTLAVTCQLPIDRGGGEGKAMYIDTEGTFRPERLLAVAERYGLSGSDVLDNVAYARAFNTDHQTQLLYQASAMMVESRYALLIVDSATALYRTDYSGRGELSARQMHLARFLRMLLRLADEFGVAVVITNQVVAQVDGAAMFAADPKKPIGGNIIAHASTTRLYLRKGRGETRICKIYDSPCLPEAEAMFAINADGVGDAKD

> <PDB ID(s) of Target Chain>
1N0W,5JZC,5NP7,5NWL,8BQ2,8BR2,8BSC

> <UniProt (SwissProt) Recommended Name of Target Chain>
DNA repair protein RAD51 homolog 1

> <UniProt (SwissProt) Entry Name of Target Chain>
RAD51_HUMAN

> <UniProt (SwissProt) Primary ID of Target Chain>
Q06609

> <UniProt (SwissProt) Secondary ID(s) of Target Chain>
B0FXP0 B2R8T6 Q6FHX9 Q6ZNA8 Q9BV60

> <UniProt (SwissProt) Alternative ID(s) of Target Chain>


> <UniProt (TrEMBL) Submitted Name of Target Chain>


> <UniProt (TrEMBL) Entry Name of Target Chain>


> <UniProt (TrEMBL) Primary ID of Target Chain>


> <UniProt (TrEMBL) Secondary ID(s) of Target Chain>


> <UniProt (TrEMBL) Alternative ID(s) of Target Chain>


$$$$
00359001.cdx
  Mrv0541 07212217012D          

 43 46  0  0  0  0            999 V2000
    0.0501    1.7053    0.0000 C   0  0  0  0  0  0  0  0  0  0  0  0
    0.0501    0.8803    0.0000 C   0  0  0  0  0  0  0  0  0  0  0  0
    0.8347    0.6253    0.0000 S   0  0  0  0  0  0  0  0  0  0  0  0
    1.3196    1.2928    0.0000 C   0  0  0  0  0  0  0  0  0  0  0  0
    0.8347    1.9602    0.0000 N   0  0  0  0  0  0  0  0  0  0  0  0
   -0.6644    0.4678    0.0000 C   0  0  0  0  0  0  0  0  0  0  0  0
   -1.3789    0.8803    0.0000 C   0  0  0  0  0  0  0  0  0  0  0  0
   -2.0933    0.4678    0.0000 C   0  0  0  0  0  0  0  0  0  0  0  0
   -2.0933   -0.3572    0.0000 C   0  0  0  0  0  0  0  0  0  0  0  0
   -1.3789   -0.7697    0.0000 C   0  0  0  0  0  0  0  0  0  0  0  0
   -0.6644   -0.3572    0.0000 C   0  0  0  0  0  0  0  0  0  0  0  0
    0.0501   -0.7697    0.0000 S   0  0  0  0  0  0  0  0  0  0  0  0
    0.7646   -1.1822    0.0000 N   0  0  0  0  0  0  0  0  0  0  0  0
    0.4626   -0.0553    0.0000 O   0  0  0  0  0  0  0  0  0  0  0  0
   -0.3624   -1.4842    0.0000 O   0  0  0  0  0  0  0  0  0  0  0  0
    1.4790   -0.7697    0.0000 C   0  0  0  0  0  0  0  0  0  0  0  0
    2.1935   -1.1822    0.0000 C   0  0  0  0  0  0  0  0  0  0  0  0
    1.4790    0.0553    0.0000 C   0  0  0  0  0  0  0  0  0  0  0  0
    2.1935   -0.3572    0.0000 C   0  0  0  0  0  0  0  0  0  0  0  0
   -2.8078   -0.7697    0.0000 C   0  0  0  0  0  0  0  0  0  0  0  0
   -3.5223   -0.3572    0.0000 N   0  0  0  0  0  0  0  0  0  0  0  0
   -4.2367   -0.7697    0.0000 C   0  0  0  0  0  0  0  0  0  0  0  0
   -4.9512   -0.3572    0.0000 C   0  0  0  0  0  0  0  0  0  0  0  0
    2.1446    1.2928    0.0000 C   0  0  0  0  0  0  0  0  0  0  0  0
    2.5571    0.5783    0.0000 C   0  0  0  0  0  0  0  0  0  0  0  0
    3.3821    0.5783    0.0000 C   0  0  0  0  0  0  0  0  0  0  0  0
    3.7946    1.2928    0.0000 C   0  0  0  0  0  0  0  0  0  0  0  0
    3.3821    2.0072    0.0000 C   0  0  0  0  0  0  0  0  0  0  0  0
    2.5571    2.0072    0.0000 C   0  0  0  0  0  0  0  0  0  0  0  0
    4.6196    1.2928    0.0000 N   0  0  0  0  0  0  0  0  0  0  0  0
    5.0321    0.5783    0.0000 C   0  0  0  0  0  0  0  0  0  0  0  0
    5.8571    0.5783    0.0000 O   0  0  0  0  0  0  0  0  0  0  0  0
    4.6196   -0.1362    0.0000 O   0  0  0  0  0  0  0  0  0  0  0  0
    6.2696    1.2928    0.0000 C   0  0  0  0  0  0  0  0  0  0  0  0
    7.0946    1.2928    0.0000 C   0  0  0  0  0  0  0  0  0  0  0  0
    5.8571    2.0072    0.0000 C   0  0  0  0  0  0  0  0  0  0  0  0
   -5.6657   -0.7697    0.0000 C   0  0  0  0  0  0  0  0  0  0  0  0
   -4.2367   -1.5947    0.0000 O   0  0  0  0  0  0  0  0  0  0  0  0
   -6.3802   -0.3572    0.0000 C   0  0  0  0  0  0  0  0  0  0  0  0
   -7.0946   -0.7697    0.0000 C   0  0  0  0  0  0  0  0  0  0  0  0
   -7.0946   -1.5947    0.0000 C   0  0  0  0  0  0  0  0  0  0  0  0
   -6.3802   -2.0072    0.0000 C   0  0  0  0  0  0  0  0  0  0  0  0
   -5.6657   -1.5947    0.0000 C   0  0  0  0  0  0  0  0  0  0  0  0
  1  2  4  0  0  0  0
  2  3  4  0  0  0  0
  3  4  4  0  0  0  0
  4  5  4  0  0  0  0
  5  1  4  0  0  0  0
  2  6  1  0  0  0  0
  6  7  4  0  0  0  0
  7  8  4  0  0  0  0
  8  9  4  0  0  0  0
  9 10  4  0  0  0  0
 10 11  4  0  0  0  0
 11  6  4  0  0  0  0
 11 12  1  0  0  0  0
 12 13  1  0  0  0  0
 12 14  2  0  0  0  0
 12 15  2  0  0  0  0
 13 16  1  0  0  0  0
 16 17  1  0  0  0  0
 16 18  1  0  0  0  0
 16 19  1  0  0  0  0
  9 20  1  0  0  0  0
 20 21  1  0  0  0  0
 21 22  1  0  0  0  0
 22 23  1  0  0  0  0
 23 37  1  0  0  0  0
  4 24  1  0  0  0  0
 24 25  4  0  0  0  0
 25 26  4  0  0  0  0
 26 27  4  0  0  0  0
 27 28  4  0  0  0  0
 28 29  4  0  0  0  0
 29 24  4  0  0  0  0
 27 30  1  0  0  0  0
 30 31  1  0  0  0  0
 31 32  1  0  0  0  0
 31 33  2  0  0  0  0
 32 34  1  0  0  0  0
 34 35  1  0  0  0  0
 34 36  1  0  0  0  0
 22 38  2  0  0  0  0
 37 39  4  0  0  0  0
 39 40  4  0  0  0  0
 40 41  4  0  0  0  0
 41 42  4  0  0  0  0
 42 43  4  0  0  0  0
 43 37  4  0  0  0  0
M  END
> <From>
www.bindingDB.org

> <BindingDB Reactant_set_id>
1155346

> <Ligand InChI>
InChI=1S/C32H36N4O5S2/c1-21(2)41-31(38)35-25-14-12-24(13-15-25)30-34-20-27(42-30)26-16-11-23(17-28(26)43(39,40)36-32(3,4)5)19-33-29(37)18-22-9-7-6-8-10-22/h6-17,20-21,36H,18-19H2,1-5H3,(H,33,37)(H,35,38)

> <Ligand InChI Key>
YEHRJARMIYTCGT-UHFFFAOYSA-N

> <BindingDB MonomerID>
546496

> <BindingDB Ligand Name>
US11291655, No O4

> <Target Name>
DNA repair protein RAD51 homolog 1

> <Target Source Organism According to Curator or DataSource>
Homo sapiens

> <Ki (nM)>


> <IC50 (nM)>


> <Kd (nM)>


> <EC50 (nM)>
<10000

> <kon (M-1-s-1)>


> <koff (s-1)>


> <pH>


> <Temp C>


> <Curation/DataSource>
US Patent

> <Article DOI>


> <BindingDB Entry DOI>
10.7270/Q2NG4TV0

> <PMID>


> <PubChem AID>
aid1806421

> <Patent Number>
US11291655

> <Authors>
Castro, AC; McComas, CC; Vacca, J

> <Date of publication>
4/5/2022

> <Date in BindingDB>
7/21/2022

> <Institution>
Cyteir Therapeutics, Inc.

> <Link to Ligand in BindingDB>
http://www.bindingdb.org/bind/chemsearch/marvin/MolStructure.jsp?monomerid=546496

> <Link to Ligand-Target Pair in BindingDB>
http://www.bindingdb.org/jsp/dbsearch/PrimarySearch_ki.jsp?energyterm=kJ/mole&tag=pol&polymerid=4676&target=DNA+repair+protein+RAD51+homolog+1&column=ki&startPg=0&Increment=50&submit=Search

> <Link to Ligand-Target Pair in BindingDB>
http://www.bindingdb.org/jsp/dbsearch/PrimarySearch_ki.jsp?energyterm=kJ/mole&tag=r21&monomerid=546496&enzyme=DNA+repair+protein+RAD51+homolog+1&column=ki&startPg=0&Increment=50&submit=Search

> <Ligand HET ID in PDB>


> <PDB ID(s) for Ligand-Target Complex>


> <PubChem CID of Ligand>
137411987

> <PubChem SID of Ligand>
469681192

> <ChEBI ID of Ligand>


> <ChEMBL ID of Ligand>


> <DrugBank ID of Ligand>


> <IUPHAR_GRAC ID of Ligand>


> <KEGG ID of Ligand>


> <ZINC ID of Ligand>


> <Number of Protein Chains in Target (bigger than 1 implies a multichain complex)>
1

> <BindingDB Target Chain Sequence>
MAMQMQLEANADTSVEEESFGPQPISRLEQCGINANDVKKLEEAGFHTVEAVAYAPKKELINIKGISEAKADKILAEAAKLVPMGFTTATEFHQRRSEIIQITTGSKELDKLLQGGIETGSITEMFGEFRTGKTQICHTLAVTCQLPIDRGGGEGKAMYIDTEGTFRPERLLAVAERYGLSGSDVLDNVAYARAFNTDHQTQLLYQASAMMVESRYALLIVDSATALYRTDYSGRGELSARQMHLARFLRMLLRLADEFGVAVVITNQVVAQVDGAAMFAADPKKPIGGNIIAHASTTRLYLRKGRGETRICKIYDSPCLPEAEAMFAINADGVGDAKD

> <PDB ID(s) of Target Chain>
1N0W,5JZC,5NP7,5NWL,8BQ2,8BR2,8BSC

> <UniProt (SwissProt) Recommended Name of Target Chain>
DNA repair protein RAD51 homolog 1

> <UniProt (SwissProt) Entry Name of Target Chain>
RAD51_HUMAN

> <UniProt (SwissProt) Primary ID of Target Chain>
Q06609

> <UniProt (SwissProt) Secondary ID(s) of Target Chain>
B0FXP0 B2R8T6 Q6FHX9 Q6ZNA8 Q9BV60

> <UniProt (SwissProt) Alternative ID(s) of Target Chain>


> <UniProt (TrEMBL) Submitted Name of Target Chain>


> <UniProt (TrEMBL) Entry Name of Target Chain>


> <UniProt (TrEMBL) Primary ID of Target Chain>


> <UniProt (TrEMBL) Secondary ID(s) of Target Chain>


> <UniProt (TrEMBL) Alternative ID(s) of Target Chain>


$$$$
00360001.cdx
  Mrv0541 07212217012D          

 43 46  0  0  0  0            999 V2000
    0.0501    2.2170    0.0000 C   0  0  0  0  0  0  0  0  0  0  0  0
    0.0501    1.3920    0.0000 C   0  0  0  0  0  0  0  0  0  0  0  0
    0.8347    1.1371    0.0000 S   0  0  0  0  0  0  0  0  0  0  0  0
    1.3196    1.8045    0.0000 C   0  0  0  0  0  0  0  0  0  0  0  0
    0.8347    2.4720    0.0000 N   0  0  0  0  0  0  0  0  0  0  0  0
   -0.6644    0.9795    0.0000 C   0  0  0  0  0  0  0  0  0  0  0  0
   -1.3789    1.3920    0.0000 C   0  0  0  0  0  0  0  0  0  0  0  0
   -2.0933    0.9795    0.0000 C   0  0  0  0  0  0  0  0  0  0  0  0
   -2.0933    0.1545    0.0000 C   0  0  0  0  0  0  0  0  0  0  0  0
   -1.3789   -0.2580    0.0000 C   0  0  0  0  0  0  0  0  0  0  0  0
   -0.6644    0.1545    0.0000 C   0  0  0  0  0  0  0  0  0  0  0  0
    0.0501   -0.2580    0.0000 S   0  0  0  0  0  0  0  0  0  0  0  0
    0.7646   -0.6705    0.0000 N   0  0  0  0  0  0  0  0  0  0  0  0
    0.4626    0.4565    0.0000 O   0  0  0  0  0  0  0  0  0  0  0  0
   -0.3624   -0.9724    0.0000 O   0  0  0  0  0  0  0  0  0  0  0  0
    1.4790   -0.2580    0.0000 C   0  0  0  0  0  0  0  0  0  0  0  0
    2.1935   -0.6705    0.0000 C   0  0  0  0  0  0  0  0  0  0  0  0
    1.4790    0.5670    0.0000 C   0  0  0  0  0  0  0  0  0  0  0  0
    2.1935    0.1545    0.0000 C   0  0  0  0  0  0  0  0  0  0  0  0
   -2.8078   -0.2580    0.0000 C   0  0  0  0  0  0  0  0  0  0  0  0
   -3.5223    0.1545    0.0000 N   0  0  0  0  0  0  0  0  0  0  0  0
   -4.2367   -0.2580    0.0000 C   0  0  0  0  0  0  0  0  0  0  0  0
   -4.9512    0.1545    0.0000 C   0  0  0  0  0  0  0  0  0  0  0  0
    2.1446    1.8045    0.0000 C   0  0  0  0  0  0  0  0  0  0  0  0
    2.5571    1.0901    0.0000 C   0  0  0  0  0  0  0  0  0  0  0  0
    3.3821    1.0901    0.0000 C   0  0  0  0  0  0  0  0  0  0  0  0
    3.7946    1.8045    0.0000 C   0  0  0  0  0  0  0  0  0  0  0  0
    3.3821    2.5190    0.0000 C   0  0  0  0  0  0  0  0  0  0  0  0
    2.5571    2.5190    0.0000 C   0  0  0  0  0  0  0  0  0  0  0  0
    4.6196    1.8045    0.0000 N   0  0  0  0  0  0  0  0  0  0  0  0
    5.0321    1.0901    0.0000 C   0  0  0  0  0  0  0  0  0  0  0  0
    5.8571    1.0901    0.0000 O   0  0  0  0  0  0  0  0  0  0  0  0
    4.6196    0.3756    0.0000 O   0  0  0  0  0  0  0  0  0  0  0  0
    6.2696    1.8045    0.0000 C   0  0  0  0  0  0  0  0  0  0  0  0
    7.0946    1.8045    0.0000 C   0  0  0  0  0  0  0  0  0  0  0  0
    5.8571    2.5190    0.0000 C   0  0  0  0  0  0  0  0  0  0  0  0
   -5.6657   -0.2580    0.0000 C   0  0  0  0  0  0  0  0  0  0  0  0
   -4.2367   -1.0830    0.0000 O   0  0  0  0  0  0  0  0  0  0  0  0
   -6.3802    0.1545    0.0000 C   0  0  0  0  0  0  0  0  0  0  0  0
   -7.0946   -0.2580    0.0000 C   0  0  0  0  0  0  0  0  0  0  0  0
   -7.0946   -1.0830    0.0000 N   0  0  0  0  0  0  0  0  0  0  0  0
   -6.3802   -1.4955    0.0000 C   0  0  0  0  0  0  0  0  0  0  0  0
   -5.6657   -1.0830    0.0000 C   0  0  0  0  0  0  0  0  0  0  0  0
  1  2  4  0  0  0  0
  2  3  4  0  0  0  0
  3  4  4  0  0  0  0
  4  5  4  0  0  0  0
  5  1  4  0  0  0  0
  2  6  1  0  0  0  0
  6  7  4  0  0  0  0
  7  8  4  0  0  0  0
  8  9  4  0  0  0  0
  9 10  4  0  0  0  0
 10 11  4  0  0  0  0
 11  6  4  0  0  0  0
 11 12  1  0  0  0  0
 12 13  1  0  0  0  0
 12 14  2  0  0  0  0
 12 15  2  0  0  0  0
 13 16  1  0  0  0  0
 16 17  1  0  0  0  0
 16 18  1  0  0  0  0
 16 19  1  0  0  0  0
  9 20  1  0  0  0  0
 20 21  1  0  0  0  0
 21 22  1  0  0  0  0
 22 23  1  0  0  0  0
 23 37  1  0  0  0  0
  4 24  1  0  0  0  0
 24 25  4  0  0  0  0
 25 26  4  0  0  0  0
 26 27  4  0  0  0  0
 27 28  4  0  0  0  0
 28 29  4  0  0  0  0
 29 24  4  0  0  0  0
 27 30  1  0  0  0  0
 30 31  1  0  0  0  0
 31 32  1  0  0  0  0
 31 33  2  0  0  0  0
 32 34  1  0  0  0  0
 34 35  1  0  0  0  0
 34 36  1  0  0  0  0
 22 38  2  0  0  0  0
 37 39  4  0  0  0  0
 39 40  4  0  0  0  0
 40 41  4  0  0  0  0
 41 42  4  0  0  0  0
 42 43  4  0  0  0  0
 43 37  4  0  0  0  0
M  END
> <From>
www.bindingDB.org

> <BindingDB Reactant_set_id>
1155347

> <Ligand InChI>
InChI=1S/C31H35N5O5S2/c1-20(2)41-30(38)35-24-9-7-23(8-10-24)29-34-19-26(42-29)25-11-6-22(16-27(25)43(39,40)36-31(3,4)5)18-33-28(37)17-21-12-14-32-15-13-21/h6-16,19-20,36H,17-18H2,1-5H3,(H,33,37)(H,35,38)

> <Ligand InChI Key>
KWHWHUARIZVCAO-UHFFFAOYSA-N

> <BindingDB MonomerID>
546497

> <BindingDB Ligand Name>
US11291655, No O5

> <Target Name>
DNA repair protein RAD51 homolog 1

> <Target Source Organism According to Curator or DataSource>
Homo sapiens

> <Ki (nM)>


> <IC50 (nM)>


> <Kd (nM)>


> <EC50 (nM)>
<5000

> <kon (M-1-s-1)>


> <koff (s-1)>


> <pH>


> <Temp C>


> <Curation/DataSource>
US Patent

> <Article DOI>


> <BindingDB Entry DOI>
10.7270/Q2NG4TV0

> <PMID>


> <PubChem AID>
aid1806421

> <Patent Number>
US11291655

> <Authors>
Castro, AC; McComas, CC; Vacca, J

> <Date of publication>
4/5/2022

> <Date in BindingDB>
7/21/2022

> <Institution>
Cyteir Therapeutics, Inc.

> <Link to Ligand in BindingDB>
http://www.bindingdb.org/bind/chemsearch/marvin/MolStructure.jsp?monomerid=546497

> <Link to Ligand-Target Pair in BindingDB>
http://www.bindingdb.org/jsp/dbsearch/PrimarySearch_ki.jsp?energyterm=kJ/mole&tag=pol&polymerid=4676&target=DNA+repair+protein+RAD51+homolog+1&column=ki&startPg=0&Increment=50&submit=Search

> <Link to Ligand-Target Pair in BindingDB>
http://www.bindingdb.org/jsp/dbsearch/PrimarySearch_ki.jsp?energyterm=kJ/mole&tag=r21&monomerid=546497&enzyme=DNA+repair+protein+RAD51+homolog+1&column=ki&startPg=0&Increment=50&submit=Search

> <Ligand HET ID in PDB>


> <PDB ID(s) for Ligand-Target Complex>


> <PubChem CID of Ligand>
137411969

> <PubChem SID of Ligand>
469681193

> <ChEBI ID of Ligand>


> <ChEMBL ID of Ligand>


> <DrugBank ID of Ligand>


> <IUPHAR_GRAC ID of Ligand>


> <KEGG ID of Ligand>


> <ZINC ID of Ligand>


> <Number of Protein Chains in Target (bigger than 1 implies a multichain complex)>
1

> <BindingDB Target Chain Sequence>
MAMQMQLEANADTSVEEESFGPQPISRLEQCGINANDVKKLEEAGFHTVEAVAYAPKKELINIKGISEAKADKILAEAAKLVPMGFTTATEFHQRRSEIIQITTGSKELDKLLQGGIETGSITEMFGEFRTGKTQICHTLAVTCQLPIDRGGGEGKAMYIDTEGTFRPERLLAVAERYGLSGSDVLDNVAYARAFNTDHQTQLLYQASAMMVESRYALLIVDSATALYRTDYSGRGELSARQMHLARFLRMLLRLADEFGVAVVITNQVVAQVDGAAMFAADPKKPIGGNIIAHASTTRLYLRKGRGETRICKIYDSPCLPEAEAMFAINADGVGDAKD

> <PDB ID(s) of Target Chain>
1N0W,5JZC,5NP7,5NWL,8BQ2,8BR2,8BSC

> <UniProt (SwissProt) Recommended Name of Target Chain>
DNA repair protein RAD51 homolog 1

> <UniProt (SwissProt) Entry Name of Target Chain>
RAD51_HUMAN

> <UniProt (SwissProt) Primary ID of Target Chain>
Q06609

> <UniProt (SwissProt) Secondary ID(s) of Target Chain>
B0FXP0 B2R8T6 Q6FHX9 Q6ZNA8 Q9BV60

> <UniProt (SwissProt) Alternative ID(s) of Target Chain>


> <UniProt (TrEMBL) Submitted Name of Target Chain>


> <UniProt (TrEMBL) Entry Name of Target Chain>


> <UniProt (TrEMBL) Primary ID of Target Chain>


> <UniProt (TrEMBL) Secondary ID(s) of Target Chain>


> <UniProt (TrEMBL) Alternative ID(s) of Target Chain>


$$$$
00361001.cdx
  Mrv0541 07212217012D          

 43 46  0  0  0  0            999 V2000
    0.0501    1.9459    0.0000 C   0  0  0  0  0  0  0  0  0  0  0  0
    0.0501    1.1209    0.0000 C   0  0  0  0  0  0  0  0  0  0  0  0
    0.8347    0.8659    0.0000 S   0  0  0  0  0  0  0  0  0  0  0  0
    1.3196    1.5334    0.0000 C   0  0  0  0  0  0  0  0  0  0  0  0
    0.8347    2.2008    0.0000 N   0  0  0  0  0  0  0  0  0  0  0  0
   -0.6644    0.7084    0.0000 C   0  0  0  0  0  0  0  0  0  0  0  0
   -1.3789    1.1209    0.0000 C   0  0  0  0  0  0  0  0  0  0  0  0
   -2.0933    0.7084    0.0000 C   0  0  0  0  0  0  0  0  0  0  0  0
   -2.0933   -0.1166    0.0000 C   0  0  0  0  0  0  0  0  0  0  0  0
   -1.3789   -0.5291    0.0000 C   0  0  0  0  0  0  0  0  0  0  0  0
   -0.6644   -0.1166    0.0000 C   0  0  0  0  0  0  0  0  0  0  0  0
    0.0501   -0.5291    0.0000 S   0  0  0  0  0  0  0  0  0  0  0  0
    0.7646   -0.9416    0.0000 N   0  0  0  0  0  0  0  0  0  0  0  0
    0.4626    0.1853    0.0000 O   0  0  0  0  0  0  0  0  0  0  0  0
   -0.3624   -1.2436    0.0000 O   0  0  0  0  0  0  0  0  0  0  0  0
    1.4790   -0.5291    0.0000 C   0  0  0  0  0  0  0  0  0  0  0  0
    2.1935   -0.9416    0.0000 C   0  0  0  0  0  0  0  0  0  0  0  0
    1.4790    0.2959    0.0000 C   0  0  0  0  0  0  0  0  0  0  0  0
    2.1935   -0.1166    0.0000 C   0  0  0  0  0  0  0  0  0  0  0  0
   -2.8078   -0.5291    0.0000 C   0  0  0  0  0  0  0  0  0  0  0  0
   -3.5223   -0.1166    0.0000 N   0  0  0  0  0  0  0  0  0  0  0  0
   -4.2367   -0.5291    0.0000 C   0  0  0  0  0  0  0  0  0  0  0  0
   -4.9512   -0.1166    0.0000 C   0  0  0  0  0  0  0  0  0  0  0  0
    2.1446    1.5334    0.0000 C   0  0  0  0  0  0  0  0  0  0  0  0
    2.5571    0.8189    0.0000 C   0  0  0  0  0  0  0  0  0  0  0  0
    3.3821    0.8189    0.0000 C   0  0  0  0  0  0  0  0  0  0  0  0
    3.7946    1.5334    0.0000 C   0  0  0  0  0  0  0  0  0  0  0  0
    3.3821    2.2478    0.0000 C   0  0  0  0  0  0  0  0  0  0  0  0
    2.5571    2.2478    0.0000 C   0  0  0  0  0  0  0  0  0  0  0  0
    4.6196    1.5334    0.0000 N   0  0  0  0  0  0  0  0  0  0  0  0
    5.0321    0.8189    0.0000 C   0  0  0  0  0  0  0  0  0  0  0  0
    5.8571    0.8189    0.0000 O   0  0  0  0  0  0  0  0  0  0  0  0
    4.6196    0.1044    0.0000 O   0  0  0  0  0  0  0  0  0  0  0  0
    6.2696    1.5334    0.0000 C   0  0  0  0  0  0  0  0  0  0  0  0
    7.0946    1.5334    0.0000 C   0  0  0  0  0  0  0  0  0  0  0  0
    5.8571    2.2478    0.0000 C   0  0  0  0  0  0  0  0  0  0  0  0
   -5.6657   -0.5291    0.0000 C   0  0  0  0  0  0  0  0  0  0  0  0
   -4.2367   -1.3541    0.0000 O   0  0  0  0  0  0  0  0  0  0  0  0
   -6.3802   -0.1166    0.0000 C   0  0  0  0  0  0  0  0  0  0  0  0
   -7.0946   -0.5291    0.0000 C   0  0  0  0  0  0  0  0  0  0  0  0
   -7.0946   -1.3541    0.0000 C   0  0  0  0  0  0  0  0  0  0  0  0
   -6.3802   -1.7666    0.0000 N   0  0  0  0  0  0  0  0  0  0  0  0
   -5.6657   -1.3541    0.0000 C   0  0  0  0  0  0  0  0  0  0  0  0
  1  2  4  0  0  0  0
  2  3  4  0  0  0  0
  3  4  4  0  0  0  0
  4  5  4  0  0  0  0
  5  1  4  0  0  0  0
  2  6  1  0  0  0  0
  6  7  4  0  0  0  0
  7  8  4  0  0  0  0
  8  9  4  0  0  0  0
  9 10  4  0  0  0  0
 10 11  4  0  0  0  0
 11  6  4  0  0  0  0
 11 12  1  0  0  0  0
 12 13  1  0  0  0  0
 12 14  2  0  0  0  0
 12 15  2  0  0  0  0
 13 16  1  0  0  0  0
 16 17  1  0  0  0  0
 16 18  1  0  0  0  0
 16 19  1  0  0  0  0
  9 20  1  0  0  0  0
 20 21  1  0  0  0  0
 21 22  1  0  0  0  0
 22 23  1  0  0  0  0
 23 37  1  0  0  0  0
  4 24  1  0  0  0  0
 24 25  4  0  0  0  0
 25 26  4  0  0  0  0
 26 27  4  0  0  0  0
 27 28  4  0  0  0  0
 28 29  4  0  0  0  0
 29 24  4  0  0  0  0
 27 30  1  0  0  0  0
 30 31  1  0  0  0  0
 31 32  1  0  0  0  0
 31 33  2  0  0  0  0
 32 34  1  0  0  0  0
 34 35  1  0  0  0  0
 34 36  1  0  0  0  0
 22 38  2  0  0  0  0
 37 39  4  0  0  0  0
 39 40  4  0  0  0  0
 40 41  4  0  0  0  0
 41 42  4  0  0  0  0
 42 43  4  0  0  0  0
 43 37  4  0  0  0  0
M  END
> <From>
www.bindingDB.org

> <BindingDB Reactant_set_id>
1155348

> <Ligand InChI>
InChI=1S/C31H35N5O5S2/c1-20(2)41-30(38)35-24-11-9-23(10-12-24)29-34-19-26(42-29)25-13-8-22(15-27(25)43(39,40)36-31(3,4)5)18-33-28(37)16-21-7-6-14-32-17-21/h6-15,17,19-20,36H,16,18H2,1-5H3,(H,33,37)(H,35,38)

> <Ligand InChI Key>
VDYVTQDWMWVSJC-UHFFFAOYSA-N

> <BindingDB MonomerID>
546498

> <BindingDB Ligand Name>
US11291655, No O6

> <Target Name>
DNA repair protein RAD51 homolog 1

> <Target Source Organism According to Curator or DataSource>
Homo sapiens

> <Ki (nM)>


> <IC50 (nM)>


> <Kd (nM)>


> <EC50 (nM)>
>10000

> <kon (M-1-s-1)>


> <koff (s-1)>


> <pH>


> <Temp C>


> <Curation/DataSource>
US Patent

> <Article DOI>


> <BindingDB Entry DOI>
10.7270/Q2NG4TV0

> <PMID>


> <PubChem AID>
aid1806421

> <Patent Number>
US11291655

> <Authors>
Castro, AC; McComas, CC; Vacca, J

> <Date of publication>
4/5/2022

> <Date in BindingDB>
7/21/2022

> <Institution>
Cyteir Therapeutics, Inc.

> <Link to Ligand in BindingDB>
http://www.bindingdb.org/bind/chemsearch/marvin/MolStructure.jsp?monomerid=546498

> <Link to Ligand-Target Pair in BindingDB>
http://www.bindingdb.org/jsp/dbsearch/PrimarySearch_ki.jsp?energyterm=kJ/mole&tag=pol&polymerid=4676&target=DNA+repair+protein+RAD51+homolog+1&column=ki&startPg=0&Increment=50&submit=Search

> <Link to Ligand-Target Pair in BindingDB>
http://www.bindingdb.org/jsp/dbsearch/PrimarySearch_ki.jsp?energyterm=kJ/mole&tag=r21&monomerid=546498&enzyme=DNA+repair+protein+RAD51+homolog+1&column=ki&startPg=0&Increment=50&submit=Search

> <Ligand HET ID in PDB>


> <PDB ID(s) for Ligand-Target Complex>


> <PubChem CID of Ligand>
137412001

> <PubChem SID of Ligand>
469681194

> <ChEBI ID of Ligand>


> <ChEMBL ID of Ligand>


> <DrugBank ID of Ligand>


> <IUPHAR_GRAC ID of Ligand>


> <KEGG ID of Ligand>


> <ZINC ID of Ligand>


> <Number of Protein Chains in Target (bigger than 1 implies a multichain complex)>
1

> <BindingDB Target Chain Sequence>
MAMQMQLEANADTSVEEESFGPQPISRLEQCGINANDVKKLEEAGFHTVEAVAYAPKKELINIKGISEAKADKILAEAAKLVPMGFTTATEFHQRRSEIIQITTGSKELDKLLQGGIETGSITEMFGEFRTGKTQICHTLAVTCQLPIDRGGGEGKAMYIDTEGTFRPERLLAVAERYGLSGSDVLDNVAYARAFNTDHQTQLLYQASAMMVESRYALLIVDSATALYRTDYSGRGELSARQMHLARFLRMLLRLADEFGVAVVITNQVVAQVDGAAMFAADPKKPIGGNIIAHASTTRLYLRKGRGETRICKIYDSPCLPEAEAMFAINADGVGDAKD

> <PDB ID(s) of Target Chain>
1N0W,5JZC,5NP7,5NWL,8BQ2,8BR2,8BSC

> <UniProt (SwissProt) Recommended Name of Target Chain>
DNA repair protein RAD51 homolog 1

> <UniProt (SwissProt) Entry Name of Target Chain>
RAD51_HUMAN

> <UniProt (SwissProt) Primary ID of Target Chain>
Q06609

> <UniProt (SwissProt) Secondary ID(s) of Target Chain>
B0FXP0 B2R8T6 Q6FHX9 Q6ZNA8 Q9BV60

> <UniProt (SwissProt) Alternative ID(s) of Target Chain>


> <UniProt (TrEMBL) Submitted Name of Target Chain>


> <UniProt (TrEMBL) Entry Name of Target Chain>


> <UniProt (TrEMBL) Primary ID of Target Chain>


> <UniProt (TrEMBL) Secondary ID(s) of Target Chain>


> <UniProt (TrEMBL) Alternative ID(s) of Target Chain>


$$$$
00362001.cdx
  Mrv0541 07212217012D          

 42 45  0  0  0  0            999 V2000
   -0.3072    1.4990    0.0000 C   0  0  0  0  0  0  0  0  0  0  0  0
   -0.3072    0.6740    0.0000 C   0  0  0  0  0  0  0  0  0  0  0  0
    0.4775    0.4191    0.0000 S   0  0  0  0  0  0  0  0  0  0  0  0
    0.9624    1.0865    0.0000 C   0  0  0  0  0  0  0  0  0  0  0  0
    0.4775    1.7540    0.0000 N   0  0  0  0  0  0  0  0  0  0  0  0
   -1.0216    0.2615    0.0000 C   0  0  0  0  0  0  0  0  0  0  0  0
   -1.7361    0.6740    0.0000 C   0  0  0  0  0  0  0  0  0  0  0  0
   -2.4506    0.2615    0.0000 C   0  0  0  0  0  0  0  0  0  0  0  0
   -2.4506   -0.5635    0.0000 C   0  0  0  0  0  0  0  0  0  0  0  0
   -1.7361   -0.9760    0.0000 C   0  0  0  0  0  0  0  0  0  0  0  0
   -1.0216   -0.5635    0.0000 C   0  0  0  0  0  0  0  0  0  0  0  0
   -0.3072   -0.9760    0.0000 S   0  0  0  0  0  0  0  0  0  0  0  0
    0.4073   -1.3885    0.0000 N   0  0  0  0  0  0  0  0  0  0  0  0
    0.1053   -0.2615    0.0000 O   0  0  0  0  0  0  0  0  0  0  0  0
   -0.7197   -1.6905    0.0000 O   0  0  0  0  0  0  0  0  0  0  0  0
    1.1218   -0.9760    0.0000 C   0  0  0  0  0  0  0  0  0  0  0  0
    1.8363   -1.3885    0.0000 C   0  0  0  0  0  0  0  0  0  0  0  0
    1.1218   -0.1510    0.0000 C   0  0  0  0  0  0  0  0  0  0  0  0
    1.8363   -0.5635    0.0000 C   0  0  0  0  0  0  0  0  0  0  0  0
   -3.1650   -0.9760    0.0000 C   0  0  0  0  0  0  0  0  0  0  0  0
   -3.8795   -0.5635    0.0000 N   0  0  0  0  0  0  0  0  0  0  0  0
   -4.5940   -0.9760    0.0000 C   0  0  0  0  0  0  0  0  0  0  0  0
   -5.3084   -0.5635    0.0000 C   0  0  0  0  0  0  0  0  0  0  0  0
    1.7874    1.0865    0.0000 C   0  0  0  0  0  0  0  0  0  0  0  0
    2.1999    0.3720    0.0000 C   0  0  0  0  0  0  0  0  0  0  0  0
    3.0249    0.3720    0.0000 C   0  0  0  0  0  0  0  0  0  0  0  0
    3.4374    1.0865    0.0000 C   0  0  0  0  0  0  0  0  0  0  0  0
    3.0249    1.8010    0.0000 C   0  0  0  0  0  0  0  0  0  0  0  0
    2.1999    1.8010    0.0000 C   0  0  0  0  0  0  0  0  0  0  0  0
    4.2624    1.0865    0.0000 N   0  0  0  0  0  0  0  0  0  0  0  0
    4.6749    0.3720    0.0000 C   0  0  0  0  0  0  0  0  0  0  0  0
    5.4999    0.3720    0.0000 O   0  0  0  0  0  0  0  0  0  0  0  0
    4.2624   -0.3424    0.0000 O   0  0  0  0  0  0  0  0  0  0  0  0
    5.9124    1.0865    0.0000 C   0  0  0  0  0  0  0  0  0  0  0  0
    6.7374    1.0865    0.0000 C   0  0  0  0  0  0  0  0  0  0  0  0
    5.4999    1.8010    0.0000 C   0  0  0  0  0  0  0  0  0  0  0  0
   -4.5940   -1.8010    0.0000 O   0  0  0  0  0  0  0  0  0  0  0  0
   -5.3084    0.2615    0.0000 C   0  0  0  0  0  0  0  0  0  0  0  0
   -6.0229    0.6740    0.0000 C   0  0  0  0  0  0  0  0  0  0  0  0
   -6.7374    0.2615    0.0000 N   0  0  0  0  0  0  0  0  0  0  0  0
   -6.7374   -0.5635    0.0000 C   0  0  0  0  0  0  0  0  0  0  0  0
   -6.0229   -0.9760    0.0000 C   0  0  0  0  0  0  0  0  0  0  0  0
  1  2  4  0  0  0  0
  2  3  4  0  0  0  0
  3  4  4  0  0  0  0
  4  5  4  0  0  0  0
  5  1  4  0  0  0  0
  2  6  1  0  0  0  0
  6  7  4  0  0  0  0
  7  8  4  0  0  0  0
  8  9  4  0  0  0  0
  9 10  4  0  0  0  0
 10 11  4  0  0  0  0
 11  6  4  0  0  0  0
 11 12  1  0  0  0  0
 12 13  1  0  0  0  0
 12 14  2  0  0  0  0
 12 15  2  0  0  0  0
 13 16  1  0  0  0  0
 16 17  1  0  0  0  0
 16 18  1  0  0  0  0
 16 19  1  0  0  0  0
  9 20  1  0  0  0  0
 20 21  1  0  0  0  0
 21 22  1  0  0  0  0
 22 23  1  0  0  0  0
  4 24  1  0  0  0  0
 24 25  4  0  0  0  0
 25 26  4  0  0  0  0
 26 27  4  0  0  0  0
 27 28  4  0  0  0  0
 28 29  4  0  0  0  0
 29 24  4  0  0  0  0
 27 30  1  0  0  0  0
 30 31  1  0  0  0  0
 31 32  1  0  0  0  0
 31 33  2  0  0  0  0
 32 34  1  0  0  0  0
 34 35  1  0  0  0  0
 34 36  1  0  0  0  0
 22 37  2  0  0  0  0
 23 38  4  0  0  0  0
 38 39  4  0  0  0  0
 39 40  4  0  0  0  0
 40 41  4  0  0  0  0
 41 42  4  0  0  0  0
 42 23  4  0  0  0  0
M  END
> <From>
www.bindingDB.org

> <BindingDB Reactant_set_id>
1155349

> <Ligand InChI>
InChI=1S/C30H33N5O5S2/c1-19(2)40-29(37)34-23-9-7-22(8-10-23)28-33-18-25(41-28)24-11-6-20(16-26(24)42(38,39)35-30(3,4)5)17-32-27(36)21-12-14-31-15-13-21/h6-16,18-19,35H,17H2,1-5H3,(H,32,36)(H,34,37)

> <Ligand InChI Key>
QRWKZJNIPHZEIJ-UHFFFAOYSA-N

> <BindingDB MonomerID>
546499

> <BindingDB Ligand Name>
US11291655, No O7

> <Target Name>
DNA repair protein RAD51 homolog 1

> <Target Source Organism According to Curator or DataSource>
Homo sapiens

> <Ki (nM)>


> <IC50 (nM)>


> <Kd (nM)>


> <EC50 (nM)>
<5000

> <kon (M-1-s-1)>


> <koff (s-1)>


> <pH>


> <Temp C>


> <Curation/DataSource>
US Patent

> <Article DOI>


> <BindingDB Entry DOI>
10.7270/Q2NG4TV0

> <PMID>


> <PubChem AID>
aid1806421

> <Patent Number>
US11291655

> <Authors>
Castro, AC; McComas, CC; Vacca, J

> <Date of publication>
4/5/2022

> <Date in BindingDB>
7/21/2022

> <Institution>
Cyteir Therapeutics, Inc.

> <Link to Ligand in BindingDB>
http://www.bindingdb.org/bind/chemsearch/marvin/MolStructure.jsp?monomerid=546499

> <Link to Ligand-Target Pair in BindingDB>
http://www.bindingdb.org/jsp/dbsearch/PrimarySearch_ki.jsp?energyterm=kJ/mole&tag=pol&polymerid=4676&target=DNA+repair+protein+RAD51+homolog+1&column=ki&startPg=0&Increment=50&submit=Search

> <Link to Ligand-Target Pair in BindingDB>
http://www.bindingdb.org/jsp/dbsearch/PrimarySearch_ki.jsp?energyterm=kJ/mole&tag=r21&monomerid=546499&enzyme=DNA+repair+protein+RAD51+homolog+1&column=ki&startPg=0&Increment=50&submit=Search

> <Ligand HET ID in PDB>


> <PDB ID(s) for Ligand-Target Complex>


> <PubChem CID of Ligand>
137411945

> <PubChem SID of Ligand>
469681195

> <ChEBI ID of Ligand>


> <ChEMBL ID of Ligand>


> <DrugBank ID of Ligand>


> <IUPHAR_GRAC ID of Ligand>


> <KEGG ID of Ligand>


> <ZINC ID of Ligand>


> <Number of Protein Chains in Target (bigger than 1 implies a multichain complex)>
1

> <BindingDB Target Chain Sequence>
MAMQMQLEANADTSVEEESFGPQPISRLEQCGINANDVKKLEEAGFHTVEAVAYAPKKELINIKGISEAKADKILAEAAKLVPMGFTTATEFHQRRSEIIQITTGSKELDKLLQGGIETGSITEMFGEFRTGKTQICHTLAVTCQLPIDRGGGEGKAMYIDTEGTFRPERLLAVAERYGLSGSDVLDNVAYARAFNTDHQTQLLYQASAMMVESRYALLIVDSATALYRTDYSGRGELSARQMHLARFLRMLLRLADEFGVAVVITNQVVAQVDGAAMFAADPKKPIGGNIIAHASTTRLYLRKGRGETRICKIYDSPCLPEAEAMFAINADGVGDAKD

> <PDB ID(s) of Target Chain>
1N0W,5JZC,5NP7,5NWL,8BQ2,8BR2,8BSC

> <UniProt (SwissProt) Recommended Name of Target Chain>
DNA repair protein RAD51 homolog 1

> <UniProt (SwissProt) Entry Name of Target Chain>
RAD51_HUMAN

> <UniProt (SwissProt) Primary ID of Target Chain>
Q06609

> <UniProt (SwissProt) Secondary ID(s) of Target Chain>
B0FXP0 B2R8T6 Q6FHX9 Q6ZNA8 Q9BV60

> <UniProt (SwissProt) Alternative ID(s) of Target Chain>


> <UniProt (TrEMBL) Submitted Name of Target Chain>


> <UniProt (TrEMBL) Entry Name of Target Chain>


> <UniProt (TrEMBL) Primary ID of Target Chain>


> <UniProt (TrEMBL) Secondary ID(s) of Target Chain>


> <UniProt (TrEMBL) Alternative ID(s) of Target Chain>


$$$$
00363001.cdx
  Mrv0541 07212217012D          

 42 45  0  0  0  0            999 V2000
   -0.3072    2.0638    0.0000 C   0  0  0  0  0  0  0  0  0  0  0  0
   -0.3072    1.2388    0.0000 C   0  0  0  0  0  0  0  0  0  0  0  0
    0.4775    0.9838    0.0000 S   0  0  0  0  0  0  0  0  0  0  0  0
    0.9624    1.6513    0.0000 C   0  0  0  0  0  0  0  0  0  0  0  0
    0.4775    2.3187    0.0000 N   0  0  0  0  0  0  0  0  0  0  0  0
   -1.0216    0.8263    0.0000 C   0  0  0  0  0  0  0  0  0  0  0  0
   -1.7361    1.2388    0.0000 C   0  0  0  0  0  0  0  0  0  0  0  0
   -2.4506    0.8263    0.0000 C   0  0  0  0  0  0  0  0  0  0  0  0
   -2.4506    0.0013    0.0000 C   0  0  0  0  0  0  0  0  0  0  0  0
   -1.7361   -0.4112    0.0000 C   0  0  0  0  0  0  0  0  0  0  0  0
   -1.0216    0.0013    0.0000 C   0  0  0  0  0  0  0  0  0  0  0  0
   -0.3072   -0.4112    0.0000 S   0  0  0  0  0  0  0  0  0  0  0  0
    0.4073   -0.8237    0.0000 N   0  0  0  0  0  0  0  0  0  0  0  0
    0.1053    0.3032    0.0000 O   0  0  0  0  0  0  0  0  0  0  0  0
   -0.7197   -1.1257    0.0000 O   0  0  0  0  0  0  0  0  0  0  0  0
    1.1218   -0.4112    0.0000 C   0  0  0  0  0  0  0  0  0  0  0  0
    1.8363   -0.8237    0.0000 C   0  0  0  0  0  0  0  0  0  0  0  0
    1.1218    0.4138    0.0000 C   0  0  0  0  0  0  0  0  0  0  0  0
    1.8363    0.0013    0.0000 C   0  0  0  0  0  0  0  0  0  0  0  0
   -3.1650   -0.4112    0.0000 C   0  0  0  0  0  0  0  0  0  0  0  0
   -3.8795    0.0013    0.0000 N   0  0  0  0  0  0  0  0  0  0  0  0
   -4.5940   -0.4112    0.0000 C   0  0  0  0  0  0  0  0  0  0  0  0
   -5.3084    0.0013    0.0000 C   0  0  0  0  0  0  0  0  0  0  0  0
    1.7874    1.6513    0.0000 C   0  0  0  0  0  0  0  0  0  0  0  0
    2.1999    0.9368    0.0000 C   0  0  0  0  0  0  0  0  0  0  0  0
    3.0249    0.9368    0.0000 C   0  0  0  0  0  0  0  0  0  0  0  0
    3.4374    1.6513    0.0000 C   0  0  0  0  0  0  0  0  0  0  0  0
    3.0249    2.3657    0.0000 C   0  0  0  0  0  0  0  0  0  0  0  0
    2.1999    2.3657    0.0000 C   0  0  0  0  0  0  0  0  0  0  0  0
    4.2624    1.6513    0.0000 N   0  0  0  0  0  0  0  0  0  0  0  0
    4.6749    0.9368    0.0000 C   0  0  0  0  0  0  0  0  0  0  0  0
    5.4999    0.9368    0.0000 O   0  0  0  0  0  0  0  0  0  0  0  0
    4.2624    0.2223    0.0000 O   0  0  0  0  0  0  0  0  0  0  0  0
    5.9124    1.6513    0.0000 C   0  0  0  0  0  0  0  0  0  0  0  0
    6.7374    1.6513    0.0000 C   0  0  0  0  0  0  0  0  0  0  0  0
    5.4999    2.3657    0.0000 C   0  0  0  0  0  0  0  0  0  0  0  0
   -4.5940   -1.2362    0.0000 O   0  0  0  0  0  0  0  0  0  0  0  0
   -5.3084    0.8263    0.0000 C   0  0  0  0  0  0  0  0  0  0  0  0
   -6.0229    1.2388    0.0000 N   0  0  0  0  0  0  0  0  0  0  0  0
   -6.7374    0.8263    0.0000 C   0  0  0  0  0  0  0  0  0  0  0  0
   -6.7374    0.0013    0.0000 N   0  0  0  0  0  0  0  0  0  0  0  0
   -6.0229   -0.4112    0.0000 C   0  0  0  0  0  0  0  0  0  0  0  0
  1  2  4  0  0  0  0
  2  3  4  0  0  0  0
  3  4  4  0  0  0  0
  4  5  4  0  0  0  0
  5  1  4  0  0  0  0
  2  6  1  0  0  0  0
  6  7  4  0  0  0  0
  7  8  4  0  0  0  0
  8  9  4  0  0  0  0
  9 10  4  0  0  0  0
 10 11  4  0  0  0  0
 11  6  4  0  0  0  0
 11 12  1  0  0  0  0
 12 13  1  0  0  0  0
 12 14  2  0  0  0  0
 12 15  2  0  0  0  0
 13 16  1  0  0  0  0
 16 17  1  0  0  0  0
 16 18  1  0  0  0  0
 16 19  1  0  0  0  0
  9 20  1  0  0  0  0
 20 21  1  0  0  0  0
 21 22  1  0  0  0  0
 22 23  1  0  0  0  0
  4 24  1  0  0  0  0
 24 25  4  0  0  0  0
 25 26  4  0  0  0  0
 26 27  4  0  0  0  0
 27 28  4  0  0  0  0
 28 29  4  0  0  0  0
 29 24  4  0  0  0  0
 27 30  1  0  0  0  0
 30 31  1  0  0  0  0
 31 32  1  0  0  0  0
 31 33  2  0  0  0  0
 32 34  1  0  0  0  0
 34 35  1  0  0  0  0
 34 36  1  0  0  0  0
 22 37  2  0  0  0  0
 23 38  4  0  0  0  0
 38 39  4  0  0  0  0
 39 40  4  0  0  0  0
 40 41  4  0  0  0  0
 41 42  4  0  0  0  0
 42 23  4  0  0  0  0
M  END
> <From>
www.bindingDB.org

> <BindingDB Reactant_set_id>
1155350

> <Ligand InChI>
InChI=1S/C29H32N6O5S2/c1-18(2)40-28(37)34-22-9-7-20(8-10-22)27-33-16-24(41-27)23-11-6-19(12-25(23)42(38,39)35-29(3,4)5)13-32-26(36)21-14-30-17-31-15-21/h6-12,14-18,35H,13H2,1-5H3,(H,32,36)(H,34,37)

> <Ligand InChI Key>
DEODCJPZNKDVOH-UHFFFAOYSA-N

> <BindingDB MonomerID>
546500

> <BindingDB Ligand Name>
US11291655, No O8

> <Target Name>
DNA repair protein RAD51 homolog 1

> <Target Source Organism According to Curator or DataSource>
Homo sapiens

> <Ki (nM)>


> <IC50 (nM)>


> <Kd (nM)>


> <EC50 (nM)>
<10000

> <kon (M-1-s-1)>


> <koff (s-1)>


> <pH>


> <Temp C>


> <Curation/DataSource>
US Patent

> <Article DOI>


> <BindingDB Entry DOI>
10.7270/Q2NG4TV0

> <PMID>


> <PubChem AID>
aid1806421

> <Patent Number>
US11291655

> <Authors>
Castro, AC; McComas, CC; Vacca, J

> <Date of publication>
4/5/2022

> <Date in BindingDB>
7/21/2022

> <Institution>
Cyteir Therapeutics, Inc.

> <Link to Ligand in BindingDB>
http://www.bindingdb.org/bind/chemsearch/marvin/MolStructure.jsp?monomerid=546500

> <Link to Ligand-Target Pair in BindingDB>
http://www.bindingdb.org/jsp/dbsearch/PrimarySearch_ki.jsp?energyterm=kJ/mole&tag=pol&polymerid=4676&target=DNA+repair+protein+RAD51+homolog+1&column=ki&startPg=0&Increment=50&submit=Search

> <Link to Ligand-Target Pair in BindingDB>
http://www.bindingdb.org/jsp/dbsearch/PrimarySearch_ki.jsp?energyterm=kJ/mole&tag=r21&monomerid=546500&enzyme=DNA+repair+protein+RAD51+homolog+1&column=ki&startPg=0&Increment=50&submit=Search

> <Ligand HET ID in PDB>


> <PDB ID(s) for Ligand-Target Complex>


> <PubChem CID of Ligand>
137411957

> <PubChem SID of Ligand>
469681196

> <ChEBI ID of Ligand>


> <ChEMBL ID of Ligand>


> <DrugBank ID of Ligand>


> <IUPHAR_GRAC ID of Ligand>


> <KEGG ID of Ligand>


> <ZINC ID of Ligand>


> <Number of Protein Chains in Target (bigger than 1 implies a multichain complex)>
1

> <BindingDB Target Chain Sequence>
MAMQMQLEANADTSVEEESFGPQPISRLEQCGINANDVKKLEEAGFHTVEAVAYAPKKELINIKGISEAKADKILAEAAKLVPMGFTTATEFHQRRSEIIQITTGSKELDKLLQGGIETGSITEMFGEFRTGKTQICHTLAVTCQLPIDRGGGEGKAMYIDTEGTFRPERLLAVAERYGLSGSDVLDNVAYARAFNTDHQTQLLYQASAMMVESRYALLIVDSATALYRTDYSGRGELSARQMHLARFLRMLLRLADEFGVAVVITNQVVAQVDGAAMFAADPKKPIGGNIIAHASTTRLYLRKGRGETRICKIYDSPCLPEAEAMFAINADGVGDAKD

> <PDB ID(s) of Target Chain>
1N0W,5JZC,5NP7,5NWL,8BQ2,8BR2,8BSC

> <UniProt (SwissProt) Recommended Name of Target Chain>
DNA repair protein RAD51 homolog 1

> <UniProt (SwissProt) Entry Name of Target Chain>
RAD51_HUMAN

> <UniProt (SwissProt) Primary ID of Target Chain>
Q06609

> <UniProt (SwissProt) Secondary ID(s) of Target Chain>
B0FXP0 B2R8T6 Q6FHX9 Q6ZNA8 Q9BV60

> <UniProt (SwissProt) Alternative ID(s) of Target Chain>


> <UniProt (TrEMBL) Submitted Name of Target Chain>


> <UniProt (TrEMBL) Entry Name of Target Chain>


> <UniProt (TrEMBL) Primary ID of Target Chain>


> <UniProt (TrEMBL) Secondary ID(s) of Target Chain>


> <UniProt (TrEMBL) Alternative ID(s) of Target Chain>


$$$$
00364001.cdx
  Mrv0541 07212217012D          

 38 40  0  0  0  0            999 V2000
    0.5974    1.6658    0.0000 N   0  0  0  0  0  0  0  0  0  0  0  0
   -0.2276    1.6658    0.0000 C   0  0  0  0  0  0  0  0  0  0  0  0
   -0.4825    0.8812    0.0000 C   0  0  0  0  0  0  0  0  0  0  0  0
    0.1849    0.3963    0.0000 S   0  0  0  0  0  0  0  0  0  0  0  0
    0.8524    0.8812    0.0000 C   0  0  0  0  0  0  0  0  0  0  0  0
   -1.2794    0.6677    0.0000 C   0  0  0  0  0  0  0  0  0  0  0  0
   -1.8628    1.2510    0.0000 C   0  0  0  0  0  0  0  0  0  0  0  0
   -2.6597    1.0375    0.0000 C   0  0  0  0  0  0  0  0  0  0  0  0
   -2.8732    0.2406    0.0000 C   0  0  0  0  0  0  0  0  0  0  0  0
   -2.2898   -0.3428    0.0000 C   0  0  0  0  0  0  0  0  0  0  0  0
   -1.4929   -0.1292    0.0000 C   0  0  0  0  0  0  0  0  0  0  0  0
   -0.9096   -0.7126    0.0000 S   0  0  0  0  0  0  0  0  0  0  0  0
    1.6492    0.6677    0.0000 C   0  0  0  0  0  0  0  0  0  0  0  0
    1.8628   -0.1292    0.0000 C   0  0  0  0  0  0  0  0  0  0  0  0
    2.6597   -0.3428    0.0000 C   0  0  0  0  0  0  0  0  0  0  0  0
    3.2430    0.2406    0.0000 C   0  0  0  0  0  0  0  0  0  0  0  0
    3.0295    1.0375    0.0000 C   0  0  0  0  0  0  0  0  0  0  0  0
    2.2326    1.2510    0.0000 C   0  0  0  0  0  0  0  0  0  0  0  0
    4.0399    0.0271    0.0000 N   0  0  0  0  0  0  0  0  0  0  0  0
    4.2534   -0.7698    0.0000 C   0  0  0  0  0  0  0  0  0  0  0  0
    5.0503   -0.9833    0.0000 O   0  0  0  0  0  0  0  0  0  0  0  0
    3.6701   -1.3532    0.0000 O   0  0  0  0  0  0  0  0  0  0  0  0
    5.6337   -0.4000    0.0000 C   0  0  0  0  0  0  0  0  0  0  0  0
   -3.6701    0.0271    0.0000 C   0  0  0  0  0  0  0  0  0  0  0  0
   -4.2534    0.6104    0.0000 N   0  0  0  0  0  0  0  0  0  0  0  0
   -5.0503    0.3969    0.0000 C   0  0  0  0  0  0  0  0  0  0  0  0
   -5.6337    0.9803    0.0000 C   0  0  0  0  0  0  0  0  0  0  0  0
   -6.4306    0.7668    0.0000 C   0  0  0  0  0  0  0  0  0  0  0  0
    6.4306   -0.6135    0.0000 C   0  0  0  0  0  0  0  0  0  0  0  0
    5.4202    0.3969    0.0000 C   0  0  0  0  0  0  0  0  0  0  0  0
   -0.3262   -1.2960    0.0000 N   0  0  0  0  0  0  0  0  0  0  0  0
   -0.3262   -0.1292    0.0000 O   0  0  0  0  0  0  0  0  0  0  0  0
   -1.4929   -1.2960    0.0000 O   0  0  0  0  0  0  0  0  0  0  0  0
    0.4707   -1.0824    0.0000 C   0  0  0  0  0  0  0  0  0  0  0  0
    1.0540   -1.6658    0.0000 C   0  0  0  0  0  0  0  0  0  0  0  0
    0.6842   -0.2855    0.0000 C   0  0  0  0  0  0  0  0  0  0  0  0
    1.2676   -0.8689    0.0000 C   0  0  0  0  0  0  0  0  0  0  0  0
   -5.2639   -0.4000    0.0000 O   0  0  0  0  0  0  0  0  0  0  0  0
  1  2  4  0  0  0  0
  2  3  4  0  0  0  0
  3  4  4  0  0  0  0
  4  5  4  0  0  0  0
  5  1  4  0  0  0  0
  3  6  1  0  0  0  0
  6  7  4  0  0  0  0
  7  8  4  0  0  0  0
  8  9  4  0  0  0  0
  9 10  4  0  0  0  0
 10 11  4  0  0  0  0
 11  6  4  0  0  0  0
  9 24  1  0  0  0  0
 11 12  1  0  0  0  0
  5 13  1  0  0  0  0
 13 14  4  0  0  0  0
 14 15  4  0  0  0  0
 15 16  4  0  0  0  0
 16 17  4  0  0  0  0
 17 18  4  0  0  0  0
 18 13  4  0  0  0  0
 16 19  1  0  0  0  0
 19 20  1  0  0  0  0
 20 21  1  0  0  0  0
 20 22  2  0  0  0  0
 21 23  1  0  0  0  0
 24 25  1  0  0  0  0
 25 26  1  0  0  0  0
 26 27  1  0  0  0  0
 27 28  1  0  0  0  0
 23 29  1  0  0  0  0
 23 30  1  0  0  0  0
 12 31  1  0  0  0  0
 12 32  2  0  0  0  0
 12 33  2  0  0  0  0
 31 34  1  0  0  0  0
 34 35  1  0  0  0  0
 34 36  1  0  0  0  0
 34 37  1  0  0  0  0
 26 38  2  0  0  0  0
M  END
> <From>
www.bindingDB.org

> <BindingDB Reactant_set_id>
1155351

> <Ligand InChI>
InChI=1S/C27H34N4O5S2/c1-7-24(32)28-15-18-8-13-21(23(14-18)38(34,35)31-27(4,5)6)22-16-29-25(37-22)19-9-11-20(12-10-19)30-26(33)36-17(2)3/h8-14,16-17,31H,7,15H2,1-6H3,(H,28,32)(H,30,33)

> <Ligand InChI Key>
HTXSGOMZCCCNNL-UHFFFAOYSA-N

> <BindingDB MonomerID>
546501

> <BindingDB Ligand Name>
US11291655, No P1

> <Target Name>
DNA repair protein RAD51 homolog 1

> <Target Source Organism According to Curator or DataSource>
Homo sapiens

> <Ki (nM)>


> <IC50 (nM)>


> <Kd (nM)>


> <EC50 (nM)>
<10000

> <kon (M-1-s-1)>


> <koff (s-1)>


> <pH>


> <Temp C>


> <Curation/DataSource>
US Patent

> <Article DOI>


> <BindingDB Entry DOI>
10.7270/Q2NG4TV0

> <PMID>


> <PubChem AID>
aid1806421

> <Patent Number>
US11291655

> <Authors>
Castro, AC; McComas, CC; Vacca, J

> <Date of publication>
4/5/2022

> <Date in BindingDB>
7/21/2022

> <Institution>
Cyteir Therapeutics, Inc.

> <Link to Ligand in BindingDB>
http://www.bindingdb.org/bind/chemsearch/marvin/MolStructure.jsp?monomerid=546501

> <Link to Ligand-Target Pair in BindingDB>
http://www.bindingdb.org/jsp/dbsearch/PrimarySearch_ki.jsp?energyterm=kJ/mole&tag=pol&polymerid=4676&target=DNA+repair+protein+RAD51+homolog+1&column=ki&startPg=0&Increment=50&submit=Search

> <Link to Ligand-Target Pair in BindingDB>
http://www.bindingdb.org/jsp/dbsearch/PrimarySearch_ki.jsp?energyterm=kJ/mole&tag=r21&monomerid=546501&enzyme=DNA+repair+protein+RAD51+homolog+1&column=ki&startPg=0&Increment=50&submit=Search

> <Ligand HET ID in PDB>


> <PDB ID(s) for Ligand-Target Complex>


> <PubChem CID of Ligand>
137412073

> <PubChem SID of Ligand>
469681197

> <ChEBI ID of Ligand>


> <ChEMBL ID of Ligand>


> <DrugBank ID of Ligand>


> <IUPHAR_GRAC ID of Ligand>


> <KEGG ID of Ligand>


> <ZINC ID of Ligand>


> <Number of Protein Chains in Target (bigger than 1 implies a multichain complex)>
1

> <BindingDB Target Chain Sequence>
MAMQMQLEANADTSVEEESFGPQPISRLEQCGINANDVKKLEEAGFHTVEAVAYAPKKELINIKGISEAKADKILAEAAKLVPMGFTTATEFHQRRSEIIQITTGSKELDKLLQGGIETGSITEMFGEFRTGKTQICHTLAVTCQLPIDRGGGEGKAMYIDTEGTFRPERLLAVAERYGLSGSDVLDNVAYARAFNTDHQTQLLYQASAMMVESRYALLIVDSATALYRTDYSGRGELSARQMHLARFLRMLLRLADEFGVAVVITNQVVAQVDGAAMFAADPKKPIGGNIIAHASTTRLYLRKGRGETRICKIYDSPCLPEAEAMFAINADGVGDAKD

> <PDB ID(s) of Target Chain>
1N0W,5JZC,5NP7,5NWL,8BQ2,8BR2,8BSC

> <UniProt (SwissProt) Recommended Name of Target Chain>
DNA repair protein RAD51 homolog 1

> <UniProt (SwissProt) Entry Name of Target Chain>
RAD51_HUMAN

> <UniProt (SwissProt) Primary ID of Target Chain>
Q06609

> <UniProt (SwissProt) Secondary ID(s) of Target Chain>
B0FXP0 B2R8T6 Q6FHX9 Q6ZNA8 Q9BV60

> <UniProt (SwissProt) Alternative ID(s) of Target Chain>


> <UniProt (TrEMBL) Submitted Name of Target Chain>


> <UniProt (TrEMBL) Entry Name of Target Chain>


> <UniProt (TrEMBL) Primary ID of Target Chain>


> <UniProt (TrEMBL) Secondary ID(s) of Target Chain>


> <UniProt (TrEMBL) Alternative ID(s) of Target Chain>


$$$$
00365001.cdx
  Mrv0541 07212217012D          

 39 41  0  0  0  0            999 V2000
    0.5974    1.6101    0.0000 N   0  0  0  0  0  0  0  0  0  0  0  0
   -0.2276    1.6101    0.0000 C   0  0  0  0  0  0  0  0  0  0  0  0
   -0.4825    0.8255    0.0000 C   0  0  0  0  0  0  0  0  0  0  0  0
    0.1849    0.3406    0.0000 S   0  0  0  0  0  0  0  0  0  0  0  0
    0.8524    0.8255    0.0000 C   0  0  0  0  0  0  0  0  0  0  0  0
   -1.2794    0.6120    0.0000 C   0  0  0  0  0  0  0  0  0  0  0  0
   -1.8628    1.1953    0.0000 C   0  0  0  0  0  0  0  0  0  0  0  0
   -2.6597    0.9818    0.0000 C   0  0  0  0  0  0  0  0  0  0  0  0
   -2.8732    0.1849    0.0000 C   0  0  0  0  0  0  0  0  0  0  0  0
   -2.2898   -0.3984    0.0000 C   0  0  0  0  0  0  0  0  0  0  0  0
   -1.4929   -0.1849    0.0000 C   0  0  0  0  0  0  0  0  0  0  0  0
   -0.9096   -0.7683    0.0000 S   0  0  0  0  0  0  0  0  0  0  0  0
    1.6492    0.6120    0.0000 C   0  0  0  0  0  0  0  0  0  0  0  0
    1.8628   -0.1849    0.0000 C   0  0  0  0  0  0  0  0  0  0  0  0
    2.6597   -0.3984    0.0000 C   0  0  0  0  0  0  0  0  0  0  0  0
    3.2430    0.1849    0.0000 C   0  0  0  0  0  0  0  0  0  0  0  0
    3.0295    0.9818    0.0000 C   0  0  0  0  0  0  0  0  0  0  0  0
    2.2326    1.1953    0.0000 C   0  0  0  0  0  0  0  0  0  0  0  0
    4.0399   -0.0286    0.0000 N   0  0  0  0  0  0  0  0  0  0  0  0
    4.2534   -0.8255    0.0000 C   0  0  0  0  0  0  0  0  0  0  0  0
    5.0503   -1.0390    0.0000 O   0  0  0  0  0  0  0  0  0  0  0  0
    3.6701   -1.4089    0.0000 O   0  0  0  0  0  0  0  0  0  0  0  0
    5.6337   -0.4557    0.0000 C   0  0  0  0  0  0  0  0  0  0  0  0
   -3.6701   -0.0286    0.0000 C   0  0  0  0  0  0  0  0  0  0  0  0
   -4.2534    0.5548    0.0000 N   0  0  0  0  0  0  0  0  0  0  0  0
   -5.0503    0.3412    0.0000 C   0  0  0  0  0  0  0  0  0  0  0  0
   -5.6337    0.9246    0.0000 C   0  0  0  0  0  0  0  0  0  0  0  0
   -6.4306    0.7111    0.0000 C   0  0  0  0  0  0  0  0  0  0  0  0
    6.4306   -0.6692    0.0000 C   0  0  0  0  0  0  0  0  0  0  0  0
    5.4202    0.3412    0.0000 C   0  0  0  0  0  0  0  0  0  0  0  0
   -0.3262   -1.3516    0.0000 N   0  0  0  0  0  0  0  0  0  0  0  0
   -0.3262   -0.1849    0.0000 O   0  0  0  0  0  0  0  0  0  0  0  0
   -1.4929   -1.3516    0.0000 O   0  0  0  0  0  0  0  0  0  0  0  0
    0.4707   -1.1381    0.0000 C   0  0  0  0  0  0  0  0  0  0  0  0
    1.0540   -1.7215    0.0000 C   0  0  0  0  0  0  0  0  0  0  0  0
    0.6842   -0.3412    0.0000 C   0  0  0  0  0  0  0  0  0  0  0  0
    1.2676   -0.9246    0.0000 C   0  0  0  0  0  0  0  0  0  0  0  0
   -5.2639   -0.4557    0.0000 O   0  0  0  0  0  0  0  0  0  0  0  0
   -5.4202    1.7215    0.0000 C   0  0  0  0  0  0  0  0  0  0  0  0
  1  2  4  0  0  0  0
  2  3  4  0  0  0  0
  3  4  4  0  0  0  0
  4  5  4  0  0  0  0
  5  1  4  0  0  0  0
  3  6  1  0  0  0  0
  6  7  4  0  0  0  0
  7  8  4  0  0  0  0
  8  9  4  0  0  0  0
  9 10  4  0  0  0  0
 10 11  4  0  0  0  0
 11  6  4  0  0  0  0
  9 24  1  0  0  0  0
 11 12  1  0  0  0  0
  5 13  1  0  0  0  0
 13 14  4  0  0  0  0
 14 15  4  0  0  0  0
 15 16  4  0  0  0  0
 16 17  4  0  0  0  0
 17 18  4  0  0  0  0
 18 13  4  0  0  0  0
 16 19  1  0  0  0  0
 19 20  1  0  0  0  0
 20 21  1  0  0  0  0
 20 22  2  0  0  0  0
 21 23  1  0  0  0  0
 24 25  1  0  0  0  0
 25 26  1  0  0  0  0
 26 27  1  0  0  0  0
 27 28  1  0  0  0  0
 23 29  1  0  0  0  0
 23 30  1  0  0  0  0
 12 31  1  0  0  0  0
 12 32  2  0  0  0  0
 12 33  2  0  0  0  0
 31 34  1  0  0  0  0
 34 35  1  0  0  0  0
 34 36  1  0  0  0  0
 34 37  1  0  0  0  0
 26 38  2  0  0  0  0
 27 39  1  0  0  0  0
M  END
> <From>
www.bindingDB.org

> <BindingDB Reactant_set_id>
1155352

> <Ligand InChI>
InChI=1S/C28H36N4O5S2/c1-17(2)25(33)29-15-19-8-13-22(24(14-19)39(35,36)32-28(5,6)7)23-16-30-26(38-23)20-9-11-21(12-10-20)31-27(34)37-18(3)4/h8-14,16-18,32H,15H2,1-7H3,(H,29,33)(H,31,34)

> <Ligand InChI Key>
ALHJUSTUJTWLGL-UHFFFAOYSA-N

> <BindingDB MonomerID>
546502

> <BindingDB Ligand Name>
US11291655, No P2

> <Target Name>
DNA repair protein RAD51 homolog 1

> <Target Source Organism According to Curator or DataSource>
Homo sapiens

> <Ki (nM)>


> <IC50 (nM)>


> <Kd (nM)>


> <EC50 (nM)>
<5000

> <kon (M-1-s-1)>


> <koff (s-1)>


> <pH>


> <Temp C>


> <Curation/DataSource>
US Patent

> <Article DOI>


> <BindingDB Entry DOI>
10.7270/Q2NG4TV0

> <PMID>


> <PubChem AID>
aid1806421

> <Patent Number>
US11291655

> <Authors>
Castro, AC; McComas, CC; Vacca, J

> <Date of publication>
4/5/2022

> <Date in BindingDB>
7/21/2022

> <Institution>
Cyteir Therapeutics, Inc.

> <Link to Ligand in BindingDB>
http://www.bindingdb.org/bind/chemsearch/marvin/MolStructure.jsp?monomerid=546502

> <Link to Ligand-Target Pair in BindingDB>
http://www.bindingdb.org/jsp/dbsearch/PrimarySearch_ki.jsp?energyterm=kJ/mole&tag=pol&polymerid=4676&target=DNA+repair+protein+RAD51+homolog+1&column=ki&startPg=0&Increment=50&submit=Search

> <Link to Ligand-Target Pair in BindingDB>
http://www.bindingdb.org/jsp/dbsearch/PrimarySearch_ki.jsp?energyterm=kJ/mole&tag=r21&monomerid=546502&enzyme=DNA+repair+protein+RAD51+homolog+1&column=ki&startPg=0&Increment=50&submit=Search

> <Ligand HET ID in PDB>


> <PDB ID(s) for Ligand-Target Complex>


> <PubChem CID of Ligand>
137411949

> <PubChem SID of Ligand>
469681198

> <ChEBI ID of Ligand>


> <ChEMBL ID of Ligand>


> <DrugBank ID of Ligand>


> <IUPHAR_GRAC ID of Ligand>


> <KEGG ID of Ligand>


> <ZINC ID of Ligand>


> <Number of Protein Chains in Target (bigger than 1 implies a multichain complex)>
1

> <BindingDB Target Chain Sequence>
MAMQMQLEANADTSVEEESFGPQPISRLEQCGINANDVKKLEEAGFHTVEAVAYAPKKELINIKGISEAKADKILAEAAKLVPMGFTTATEFHQRRSEIIQITTGSKELDKLLQGGIETGSITEMFGEFRTGKTQICHTLAVTCQLPIDRGGGEGKAMYIDTEGTFRPERLLAVAERYGLSGSDVLDNVAYARAFNTDHQTQLLYQASAMMVESRYALLIVDSATALYRTDYSGRGELSARQMHLARFLRMLLRLADEFGVAVVITNQVVAQVDGAAMFAADPKKPIGGNIIAHASTTRLYLRKGRGETRICKIYDSPCLPEAEAMFAINADGVGDAKD

> <PDB ID(s) of Target Chain>
1N0W,5JZC,5NP7,5NWL,8BQ2,8BR2,8BSC

> <UniProt (SwissProt) Recommended Name of Target Chain>
DNA repair protein RAD51 homolog 1

> <UniProt (SwissProt) Entry Name of Target Chain>
RAD51_HUMAN

> <UniProt (SwissProt) Primary ID of Target Chain>
Q06609

> <UniProt (SwissProt) Secondary ID(s) of Target Chain>
B0FXP0 B2R8T6 Q6FHX9 Q6ZNA8 Q9BV60

> <UniProt (SwissProt) Alternative ID(s) of Target Chain>


> <UniProt (TrEMBL) Submitted Name of Target Chain>


> <UniProt (TrEMBL) Entry Name of Target Chain>


> <UniProt (TrEMBL) Primary ID of Target Chain>


> <UniProt (TrEMBL) Secondary ID(s) of Target Chain>


> <UniProt (TrEMBL) Alternative ID(s) of Target Chain>


$$$$
00366001.cdx
  Mrv0541 07212217012D          

 40 42  0  0  0  0            999 V2000
   -0.6644    1.4990    0.0000 C   0  0  0  0  0  0  0  0  0  0  0  0
   -0.6644    0.6740    0.0000 C   0  0  0  0  0  0  0  0  0  0  0  0
    0.1202    0.4191    0.0000 S   0  0  0  0  0  0  0  0  0  0  0  0
    0.6052    1.0865    0.0000 C   0  0  0  0  0  0  0  0  0  0  0  0
    0.1202    1.7540    0.0000 N   0  0  0  0  0  0  0  0  0  0  0  0
   -1.3789    0.2615    0.0000 C   0  0  0  0  0  0  0  0  0  0  0  0
   -2.0933    0.6740    0.0000 C   0  0  0  0  0  0  0  0  0  0  0  0
   -2.8078    0.2615    0.0000 C   0  0  0  0  0  0  0  0  0  0  0  0
   -2.8078   -0.5635    0.0000 C   0  0  0  0  0  0  0  0  0  0  0  0
   -2.0933   -0.9760    0.0000 C   0  0  0  0  0  0  0  0  0  0  0  0
   -1.3789   -0.5635    0.0000 C   0  0  0  0  0  0  0  0  0  0  0  0
   -0.6644   -0.9760    0.0000 S   0  0  0  0  0  0  0  0  0  0  0  0
    0.0501   -1.3885    0.0000 N   0  0  0  0  0  0  0  0  0  0  0  0
   -0.2519   -0.2615    0.0000 O   0  0  0  0  0  0  0  0  0  0  0  0
   -1.0769   -1.6905    0.0000 O   0  0  0  0  0  0  0  0  0  0  0  0
    0.7646   -0.9760    0.0000 C   0  0  0  0  0  0  0  0  0  0  0  0
    1.4790   -1.3885    0.0000 C   0  0  0  0  0  0  0  0  0  0  0  0
    0.7646   -0.1510    0.0000 C   0  0  0  0  0  0  0  0  0  0  0  0
    1.4790   -0.5635    0.0000 C   0  0  0  0  0  0  0  0  0  0  0  0
   -3.5223   -0.9760    0.0000 C   0  0  0  0  0  0  0  0  0  0  0  0
   -4.2367   -0.5635    0.0000 N   0  0  0  0  0  0  0  0  0  0  0  0
   -4.9512   -0.9760    0.0000 C   0  0  0  0  0  0  0  0  0  0  0  0
   -5.6657   -0.5635    0.0000 C   0  0  0  0  0  0  0  0  0  0  0  0
    1.4302    1.0865    0.0000 C   0  0  0  0  0  0  0  0  0  0  0  0
    1.8427    0.3720    0.0000 C   0  0  0  0  0  0  0  0  0  0  0  0
    2.6677    0.3720    0.0000 C   0  0  0  0  0  0  0  0  0  0  0  0
    3.0802    1.0865    0.0000 C   0  0  0  0  0  0  0  0  0  0  0  0
    2.6677    1.8010    0.0000 C   0  0  0  0  0  0  0  0  0  0  0  0
    1.8427    1.8010    0.0000 C   0  0  0  0  0  0  0  0  0  0  0  0
    3.9052    1.0865    0.0000 N   0  0  0  0  0  0  0  0  0  0  0  0
    4.3177    0.3720    0.0000 C   0  0  0  0  0  0  0  0  0  0  0  0
    5.1427    0.3720    0.0000 O   0  0  0  0  0  0  0  0  0  0  0  0
    3.9052   -0.3424    0.0000 O   0  0  0  0  0  0  0  0  0  0  0  0
    5.5552    1.0865    0.0000 C   0  0  0  0  0  0  0  0  0  0  0  0
    6.3802    1.0865    0.0000 C   0  0  0  0  0  0  0  0  0  0  0  0
    5.1427    1.8010    0.0000 C   0  0  0  0  0  0  0  0  0  0  0  0
   -6.3802   -0.9760    0.0000 C   0  0  0  0  0  0  0  0  0  0  0  0
   -4.9512   -1.8010    0.0000 O   0  0  0  0  0  0  0  0  0  0  0  0
   -5.6657    0.2615    0.0000 C   0  0  0  0  0  0  0  0  0  0  0  0
   -6.3802   -0.1510    0.0000 C   0  0  0  0  0  0  0  0  0  0  0  0
  1  2  4  0  0  0  0
  2  3  4  0  0  0  0
  3  4  4  0  0  0  0
  4  5  4  0  0  0  0
  5  1  4  0  0  0  0
  2  6  1  0  0  0  0
  6  7  4  0  0  0  0
  7  8  4  0  0  0  0
  8  9  4  0  0  0  0
  9 10  4  0  0  0  0
 10 11  4  0  0  0  0
 11  6  4  0  0  0  0
 11 12  1  0  0  0  0
 12 13  1  0  0  0  0
 12 14  2  0  0  0  0
 12 15  2  0  0  0  0
 13 16  1  0  0  0  0
 16 17  1  0  0  0  0
 16 18  1  0  0  0  0
 16 19  1  0  0  0  0
  9 20  1  0  0  0  0
 20 21  1  0  0  0  0
 21 22  1  0  0  0  0
 22 23  1  0  0  0  0
 23 37  1  0  0  0  0
  4 24  1  0  0  0  0
 24 25  4  0  0  0  0
 25 26  4  0  0  0  0
 26 27  4  0  0  0  0
 27 28  4  0  0  0  0
 28 29  4  0  0  0  0
 29 24  4  0  0  0  0
 27 30  1  0  0  0  0
 30 31  1  0  0  0  0
 31 32  1  0  0  0  0
 31 33  2  0  0  0  0
 32 34  1  0  0  0  0
 34 35  1  0  0  0  0
 34 36  1  0  0  0  0
 22 38  2  0  0  0  0
 23 39  1  0  0  0  0
 23 40  1  0  0  0  0
M  END
> <From>
www.bindingDB.org

> <BindingDB Reactant_set_id>
1155353

> <Ligand InChI>
InChI=1S/C29H38N4O5S2/c1-18(2)38-27(35)32-21-12-10-20(11-13-21)25-30-17-23(39-25)22-14-9-19(16-31-26(34)28(3,4)5)15-24(22)40(36,37)33-29(6,7)8/h9-15,17-18,33H,16H2,1-8H3,(H,31,34)(H,32,35)

> <Ligand InChI Key>
FZSRDJRPYWPBKI-UHFFFAOYSA-N

> <BindingDB MonomerID>
546503

> <BindingDB Ligand Name>
US11291655, No P3

> <Target Name>
DNA repair protein RAD51 homolog 1

> <Target Source Organism According to Curator or DataSource>
Homo sapiens

> <Ki (nM)>


> <IC50 (nM)>


> <Kd (nM)>


> <EC50 (nM)>
>10000

> <kon (M-1-s-1)>


> <koff (s-1)>


> <pH>


> <Temp C>


> <Curation/DataSource>
US Patent

> <Article DOI>


> <BindingDB Entry DOI>
10.7270/Q2NG4TV0

> <PMID>


> <PubChem AID>
aid1806421

> <Patent Number>
US11291655

> <Authors>
Castro, AC; McComas, CC; Vacca, J

> <Date of publication>
4/5/2022

> <Date in BindingDB>
7/21/2022

> <Institution>
Cyteir Therapeutics, Inc.

> <Link to Ligand in BindingDB>
http://www.bindingdb.org/bind/chemsearch/marvin/MolStructure.jsp?monomerid=546503

> <Link to Ligand-Target Pair in BindingDB>
http://www.bindingdb.org/jsp/dbsearch/PrimarySearch_ki.jsp?energyterm=kJ/mole&tag=pol&polymerid=4676&target=DNA+repair+protein+RAD51+homolog+1&column=ki&startPg=0&Increment=50&submit=Search

> <Link to Ligand-Target Pair in BindingDB>
http://www.bindingdb.org/jsp/dbsearch/PrimarySearch_ki.jsp?energyterm=kJ/mole&tag=r21&monomerid=546503&enzyme=DNA+repair+protein+RAD51+homolog+1&column=ki&startPg=0&Increment=50&submit=Search

> <Ligand HET ID in PDB>


> <PDB ID(s) for Ligand-Target Complex>


> <PubChem CID of Ligand>
137411722

> <PubChem SID of Ligand>
469681199

> <ChEBI ID of Ligand>


> <ChEMBL ID of Ligand>


> <DrugBank ID of Ligand>


> <IUPHAR_GRAC ID of Ligand>


> <KEGG ID of Ligand>


> <ZINC ID of Ligand>


> <Number of Protein Chains in Target (bigger than 1 implies a multichain complex)>
1

> <BindingDB Target Chain Sequence>
MAMQMQLEANADTSVEEESFGPQPISRLEQCGINANDVKKLEEAGFHTVEAVAYAPKKELINIKGISEAKADKILAEAAKLVPMGFTTATEFHQRRSEIIQITTGSKELDKLLQGGIETGSITEMFGEFRTGKTQICHTLAVTCQLPIDRGGGEGKAMYIDTEGTFRPERLLAVAERYGLSGSDVLDNVAYARAFNTDHQTQLLYQASAMMVESRYALLIVDSATALYRTDYSGRGELSARQMHLARFLRMLLRLADEFGVAVVITNQVVAQVDGAAMFAADPKKPIGGNIIAHASTTRLYLRKGRGETRICKIYDSPCLPEAEAMFAINADGVGDAKD

> <PDB ID(s) of Target Chain>
1N0W,5JZC,5NP7,5NWL,8BQ2,8BR2,8BSC

> <UniProt (SwissProt) Recommended Name of Target Chain>
DNA repair protein RAD51 homolog 1

> <UniProt (SwissProt) Entry Name of Target Chain>
RAD51_HUMAN

> <UniProt (SwissProt) Primary ID of Target Chain>
Q06609

> <UniProt (SwissProt) Secondary ID(s) of Target Chain>
B0FXP0 B2R8T6 Q6FHX9 Q6ZNA8 Q9BV60

> <UniProt (SwissProt) Alternative ID(s) of Target Chain>


> <UniProt (TrEMBL) Submitted Name of Target Chain>


> <UniProt (TrEMBL) Entry Name of Target Chain>


> <UniProt (TrEMBL) Primary ID of Target Chain>


> <UniProt (TrEMBL) Secondary ID(s) of Target Chain>


> <UniProt (TrEMBL) Alternative ID(s) of Target Chain>


$$$$
00367001.cdx
  Mrv0541 07212217012D          

 42 45  0  0  0  0            999 V2000
   -0.3072    1.4990    0.0000 C   0  0  0  0  0  0  0  0  0  0  0  0
   -0.3072    0.6740    0.0000 C   0  0  0  0  0  0  0  0  0  0  0  0
    0.4775    0.4191    0.0000 S   0  0  0  0  0  0  0  0  0  0  0  0
    0.9624    1.0865    0.0000 C   0  0  0  0  0  0  0  0  0  0  0  0
    0.4775    1.7540    0.0000 N   0  0  0  0  0  0  0  0  0  0  0  0
   -1.0216    0.2615    0.0000 C   0  0  0  0  0  0  0  0  0  0  0  0
   -1.7361    0.6740    0.0000 C   0  0  0  0  0  0  0  0  0  0  0  0
   -2.4506    0.2615    0.0000 C   0  0  0  0  0  0  0  0  0  0  0  0
   -2.4506   -0.5635    0.0000 C   0  0  0  0  0  0  0  0  0  0  0  0
   -1.7361   -0.9760    0.0000 C   0  0  0  0  0  0  0  0  0  0  0  0
   -1.0216   -0.5635    0.0000 C   0  0  0  0  0  0  0  0  0  0  0  0
   -0.3072   -0.9760    0.0000 S   0  0  0  0  0  0  0  0  0  0  0  0
    0.4073   -1.3885    0.0000 N   0  0  0  0  0  0  0  0  0  0  0  0
    0.1053   -0.2615    0.0000 O   0  0  0  0  0  0  0  0  0  0  0  0
   -0.7197   -1.6905    0.0000 O   0  0  0  0  0  0  0  0  0  0  0  0
    1.1218   -0.9760    0.0000 C   0  0  0  0  0  0  0  0  0  0  0  0
    1.8363   -1.3885    0.0000 C   0  0  0  0  0  0  0  0  0  0  0  0
    1.1218   -0.1510    0.0000 C   0  0  0  0  0  0  0  0  0  0  0  0
    1.8363   -0.5635    0.0000 C   0  0  0  0  0  0  0  0  0  0  0  0
   -3.1650   -0.9760    0.0000 C   0  0  0  0  0  0  0  0  0  0  0  0
   -3.8795   -0.5635    0.0000 N   0  0  0  0  0  0  0  0  0  0  0  0
   -4.5940   -0.9760    0.0000 C   0  0  0  0  0  0  0  0  0  0  0  0
   -5.3084   -0.5635    0.0000 C   0  0  0  0  0  0  0  0  0  0  0  0
    1.7874    1.0865    0.0000 C   0  0  0  0  0  0  0  0  0  0  0  0
    2.1999    0.3720    0.0000 C   0  0  0  0  0  0  0  0  0  0  0  0
    3.0249    0.3720    0.0000 C   0  0  0  0  0  0  0  0  0  0  0  0
    3.4374    1.0865    0.0000 C   0  0  0  0  0  0  0  0  0  0  0  0
    3.0249    1.8010    0.0000 C   0  0  0  0  0  0  0  0  0  0  0  0
    2.1999    1.8010    0.0000 C   0  0  0  0  0  0  0  0  0  0  0  0
    4.2624    1.0865    0.0000 N   0  0  0  0  0  0  0  0  0  0  0  0
    4.6749    0.3720    0.0000 C   0  0  0  0  0  0  0  0  0  0  0  0
    5.4999    0.3720    0.0000 O   0  0  0  0  0  0  0  0  0  0  0  0
    4.2624   -0.3424    0.0000 O   0  0  0  0  0  0  0  0  0  0  0  0
    5.9124    1.0865    0.0000 C   0  0  0  0  0  0  0  0  0  0  0  0
    6.7374    1.0865    0.0000 C   0  0  0  0  0  0  0  0  0  0  0  0
    5.4999    1.8010    0.0000 C   0  0  0  0  0  0  0  0  0  0  0  0
   -4.5940   -1.8010    0.0000 O   0  0  0  0  0  0  0  0  0  0  0  0
   -5.3084    0.2615    0.0000 C   0  0  0  0  0  0  0  0  0  0  0  0
   -6.0229    0.6740    0.0000 C   0  0  0  0  0  0  0  0  0  0  0  0
   -6.7374    0.2615    0.0000 C   0  0  0  0  0  0  0  0  0  0  0  0
   -6.7374   -0.5635    0.0000 C   0  0  0  0  0  0  0  0  0  0  0  0
   -6.0229   -0.9760    0.0000 C   0  0  0  0  0  0  0  0  0  0  0  0
  1  2  4  0  0  0  0
  2  3  4  0  0  0  0
  3  4  4  0  0  0  0
  4  5  4  0  0  0  0
  5  1  4  0  0  0  0
  2  6  1  0  0  0  0
  6  7  4  0  0  0  0
  7  8  4  0  0  0  0
  8  9  4  0  0  0  0
  9 10  4  0  0  0  0
 10 11  4  0  0  0  0
 11  6  4  0  0  0  0
 11 12  1  0  0  0  0
 12 13  1  0  0  0  0
 12 14  2  0  0  0  0
 12 15  2  0  0  0  0
 13 16  1  0  0  0  0
 16 17  1  0  0  0  0
 16 18  1  0  0  0  0
 16 19  1  0  0  0  0
  9 20  1  0  0  0  0
 20 21  1  0  0  0  0
 21 22  1  0  0  0  0
 22 23  1  0  0  0  0
  4 24  1  0  0  0  0
 24 25  4  0  0  0  0
 25 26  4  0  0  0  0
 26 27  4  0  0  0  0
 27 28  4  0  0  0  0
 28 29  4  0  0  0  0
 29 24  4  0  0  0  0
 27 30  1  0  0  0  0
 30 31  1  0  0  0  0
 31 32  1  0  0  0  0
 31 33  2  0  0  0  0
 32 34  1  0  0  0  0
 34 35  1  0  0  0  0
 34 36  1  0  0  0  0
 22 37  2  0  0  0  0
 23 38  4  0  0  0  0
 38 39  4  0  0  0  0
 39 40  4  0  0  0  0
 40 41  4  0  0  0  0
 41 42  4  0  0  0  0
 42 23  4  0  0  0  0
M  END
> <From>
www.bindingDB.org

> <BindingDB Reactant_set_id>
1155354

> <Ligand InChI>
InChI=1S/C31H34N4O5S2/c1-20(2)40-30(37)34-24-14-12-23(13-15-24)29-33-19-26(41-29)25-16-11-21(17-27(25)42(38,39)35-31(3,4)5)18-32-28(36)22-9-7-6-8-10-22/h6-17,19-20,35H,18H2,1-5H3,(H,32,36)(H,34,37)

> <Ligand InChI Key>
AIKGMKQGCLFFII-UHFFFAOYSA-N

> <BindingDB MonomerID>
546504

> <BindingDB Ligand Name>
US11291655, No P4

> <Target Name>
DNA repair protein RAD51 homolog 1

> <Target Source Organism According to Curator or DataSource>
Homo sapiens

> <Ki (nM)>


> <IC50 (nM)>


> <Kd (nM)>


> <EC50 (nM)>
>10000

> <kon (M-1-s-1)>


> <koff (s-1)>


> <pH>


> <Temp C>


> <Curation/DataSource>
US Patent

> <Article DOI>


> <BindingDB Entry DOI>
10.7270/Q2NG4TV0

> <PMID>


> <PubChem AID>
aid1806421

> <Patent Number>
US11291655

> <Authors>
Castro, AC; McComas, CC; Vacca, J

> <Date of publication>
4/5/2022

> <Date in BindingDB>
7/21/2022

> <Institution>
Cyteir Therapeutics, Inc.

> <Link to Ligand in BindingDB>
http://www.bindingdb.org/bind/chemsearch/marvin/MolStructure.jsp?monomerid=546504

> <Link to Ligand-Target Pair in BindingDB>
http://www.bindingdb.org/jsp/dbsearch/PrimarySearch_ki.jsp?energyterm=kJ/mole&tag=pol&polymerid=4676&target=DNA+repair+protein+RAD51+homolog+1&column=ki&startPg=0&Increment=50&submit=Search

> <Link to Ligand-Target Pair in BindingDB>
http://www.bindingdb.org/jsp/dbsearch/PrimarySearch_ki.jsp?energyterm=kJ/mole&tag=r21&monomerid=546504&enzyme=DNA+repair+protein+RAD51+homolog+1&column=ki&startPg=0&Increment=50&submit=Search

> <Ligand HET ID in PDB>


> <PDB ID(s) for Ligand-Target Complex>


> <PubChem CID of Ligand>
137411970

> <PubChem SID of Ligand>
469681200

> <ChEBI ID of Ligand>


> <ChEMBL ID of Ligand>


> <DrugBank ID of Ligand>


> <IUPHAR_GRAC ID of Ligand>


> <KEGG ID of Ligand>


> <ZINC ID of Ligand>


> <Number of Protein Chains in Target (bigger than 1 implies a multichain complex)>
1

> <BindingDB Target Chain Sequence>
MAMQMQLEANADTSVEEESFGPQPISRLEQCGINANDVKKLEEAGFHTVEAVAYAPKKELINIKGISEAKADKILAEAAKLVPMGFTTATEFHQRRSEIIQITTGSKELDKLLQGGIETGSITEMFGEFRTGKTQICHTLAVTCQLPIDRGGGEGKAMYIDTEGTFRPERLLAVAERYGLSGSDVLDNVAYARAFNTDHQTQLLYQASAMMVESRYALLIVDSATALYRTDYSGRGELSARQMHLARFLRMLLRLADEFGVAVVITNQVVAQVDGAAMFAADPKKPIGGNIIAHASTTRLYLRKGRGETRICKIYDSPCLPEAEAMFAINADGVGDAKD

> <PDB ID(s) of Target Chain>
1N0W,5JZC,5NP7,5NWL,8BQ2,8BR2,8BSC

> <UniProt (SwissProt) Recommended Name of Target Chain>
DNA repair protein RAD51 homolog 1

> <UniProt (SwissProt) Entry Name of Target Chain>
RAD51_HUMAN

> <UniProt (SwissProt) Primary ID of Target Chain>
Q06609

> <UniProt (SwissProt) Secondary ID(s) of Target Chain>
B0FXP0 B2R8T6 Q6FHX9 Q6ZNA8 Q9BV60

> <UniProt (SwissProt) Alternative ID(s) of Target Chain>


> <UniProt (TrEMBL) Submitted Name of Target Chain>


> <UniProt (TrEMBL) Entry Name of Target Chain>


> <UniProt (TrEMBL) Primary ID of Target Chain>


> <UniProt (TrEMBL) Secondary ID(s) of Target Chain>


> <UniProt (TrEMBL) Alternative ID(s) of Target Chain>


$$$$
00368001.cdx
  Mrv0541 07212217012D          

 38 40  0  0  0  0            999 V2000
   -1.0216    1.4438    0.0000 C   0  0  0  0  0  0  0  0  0  0  0  0
   -1.0216    0.6188    0.0000 C   0  0  0  0  0  0  0  0  0  0  0  0
   -0.2370    0.3638    0.0000 S   0  0  0  0  0  0  0  0  0  0  0  0
    0.2479    1.0313    0.0000 C   0  0  0  0  0  0  0  0  0  0  0  0
   -0.2370    1.6987    0.0000 N   0  0  0  0  0  0  0  0  0  0  0  0
   -1.7361    0.2063    0.0000 C   0  0  0  0  0  0  0  0  0  0  0  0
   -2.4506    0.6188    0.0000 C   0  0  0  0  0  0  0  0  0  0  0  0
   -3.1650    0.2063    0.0000 C   0  0  0  0  0  0  0  0  0  0  0  0
   -3.1650   -0.6187    0.0000 C   0  0  0  0  0  0  0  0  0  0  0  0
   -2.4506   -1.0312    0.0000 C   0  0  0  0  0  0  0  0  0  0  0  0
   -1.7361   -0.6187    0.0000 C   0  0  0  0  0  0  0  0  0  0  0  0
   -1.0216   -1.0312    0.0000 S   0  0  0  0  0  0  0  0  0  0  0  0
   -0.3072   -1.4437    0.0000 N   0  0  0  0  0  0  0  0  0  0  0  0
   -0.6091   -0.3168    0.0000 O   0  0  0  0  0  0  0  0  0  0  0  0
   -1.4341   -1.7457    0.0000 O   0  0  0  0  0  0  0  0  0  0  0  0
    0.4073   -1.0312    0.0000 C   0  0  0  0  0  0  0  0  0  0  0  0
    1.1218   -1.4437    0.0000 C   0  0  0  0  0  0  0  0  0  0  0  0
    0.4073   -0.2062    0.0000 C   0  0  0  0  0  0  0  0  0  0  0  0
    1.1218   -0.6187    0.0000 C   0  0  0  0  0  0  0  0  0  0  0  0
   -3.8795   -1.0312    0.0000 C   0  0  0  0  0  0  0  0  0  0  0  0
   -4.5940   -0.6187    0.0000 N   0  0  0  0  0  0  0  0  0  0  0  0
   -5.3084   -1.0312    0.0000 S   0  0  0  0  0  0  0  0  0  0  0  0
    1.0729    1.0313    0.0000 C   0  0  0  0  0  0  0  0  0  0  0  0
    1.4854    0.3168    0.0000 C   0  0  0  0  0  0  0  0  0  0  0  0
    2.3104    0.3168    0.0000 C   0  0  0  0  0  0  0  0  0  0  0  0
    2.7229    1.0313    0.0000 C   0  0  0  0  0  0  0  0  0  0  0  0
    2.3104    1.7457    0.0000 C   0  0  0  0  0  0  0  0  0  0  0  0
    1.4854    1.7457    0.0000 C   0  0  0  0  0  0  0  0  0  0  0  0
    3.5479    1.0313    0.0000 N   0  0  0  0  0  0  0  0  0  0  0  0
    3.9604    0.3168    0.0000 C   0  0  0  0  0  0  0  0  0  0  0  0
    4.7854    0.3168    0.0000 O   0  0  0  0  0  0  0  0  0  0  0  0
    3.5479   -0.3977    0.0000 O   0  0  0  0  0  0  0  0  0  0  0  0
    5.1979    1.0313    0.0000 C   0  0  0  0  0  0  0  0  0  0  0  0
    6.0229    1.0313    0.0000 C   0  0  0  0  0  0  0  0  0  0  0  0
    4.7854    1.7457    0.0000 C   0  0  0  0  0  0  0  0  0  0  0  0
   -6.0229   -1.4437    0.0000 C   0  0  0  0  0  0  0  0  0  0  0  0
   -5.7209   -0.3168    0.0000 O   0  0  0  0  0  0  0  0  0  0  0  0
   -4.8960   -1.7457    0.0000 O   0  0  0  0  0  0  0  0  0  0  0  0
  1  2  4  0  0  0  0
  2  3  4  0  0  0  0
  3  4  4  0  0  0  0
  4  5  4  0  0  0  0
  5  1  4  0  0  0  0
  2  6  1  0  0  0  0
  6  7  4  0  0  0  0
  7  8  4  0  0  0  0
  8  9  4  0  0  0  0
  9 10  4  0  0  0  0
 10 11  4  0  0  0  0
 11  6  4  0  0  0  0
 11 12  1  0  0  0  0
 12 13  1  0  0  0  0
 12 14  2  0  0  0  0
 12 15  2  0  0  0  0
 13 16  1  0  0  0  0
 16 17  1  0  0  0  0
 16 18  1  0  0  0  0
 16 19  1  0  0  0  0
  9 20  1  0  0  0  0
 20 21  1  0  0  0  0
 21 22  1  0  0  0  0
  4 23  1  0  0  0  0
 23 24  4  0  0  0  0
 24 25  4  0  0  0  0
 25 26  4  0  0  0  0
 26 27  4  0  0  0  0
 27 28  4  0  0  0  0
 28 23  4  0  0  0  0
 26 29  1  0  0  0  0
 29 30  1  0  0  0  0
 30 31  1  0  0  0  0
 30 32  2  0  0  0  0
 31 33  1  0  0  0  0
 33 34  1  0  0  0  0
 33 35  1  0  0  0  0
 22 36  1  0  0  0  0
 22 37  2  0  0  0  0
 22 38  2  0  0  0  0
M  END
> <From>
www.bindingDB.org

> <BindingDB Reactant_set_id>
1155355

> <Ligand InChI>
InChI=1S/C25H32N4O6S3/c1-16(2)35-24(30)28-19-10-8-18(9-11-19)23-26-15-21(36-23)20-12-7-17(14-27-37(6,31)32)13-22(20)38(33,34)29-25(3,4)5/h7-13,15-16,27,29H,14H2,1-6H3,(H,28,30)

> <Ligand InChI Key>
NFSZCWMLYREYRZ-UHFFFAOYSA-N

> <BindingDB MonomerID>
546505

> <BindingDB Ligand Name>
US11291655, No P5

> <Target Name>
DNA repair protein RAD51 homolog 1

> <Target Source Organism According to Curator or DataSource>
Homo sapiens

> <Ki (nM)>


> <IC50 (nM)>


> <Kd (nM)>


> <EC50 (nM)>
<10000

> <kon (M-1-s-1)>


> <koff (s-1)>


> <pH>


> <Temp C>


> <Curation/DataSource>
US Patent

> <Article DOI>


> <BindingDB Entry DOI>
10.7270/Q2NG4TV0

> <PMID>


> <PubChem AID>
aid1806421

> <Patent Number>
US11291655

> <Authors>
Castro, AC; McComas, CC; Vacca, J

> <Date of publication>
4/5/2022

> <Date in BindingDB>
7/21/2022

> <Institution>
Cyteir Therapeutics, Inc.

> <Link to Ligand in BindingDB>
http://www.bindingdb.org/bind/chemsearch/marvin/MolStructure.jsp?monomerid=546505

> <Link to Ligand-Target Pair in BindingDB>
http://www.bindingdb.org/jsp/dbsearch/PrimarySearch_ki.jsp?energyterm=kJ/mole&tag=pol&polymerid=4676&target=DNA+repair+protein+RAD51+homolog+1&column=ki&startPg=0&Increment=50&submit=Search

> <Link to Ligand-Target Pair in BindingDB>
http://www.bindingdb.org/jsp/dbsearch/PrimarySearch_ki.jsp?energyterm=kJ/mole&tag=r21&monomerid=546505&enzyme=DNA+repair+protein+RAD51+homolog+1&column=ki&startPg=0&Increment=50&submit=Search

> <Ligand HET ID in PDB>


> <PDB ID(s) for Ligand-Target Complex>


> <PubChem CID of Ligand>
137411992

> <PubChem SID of Ligand>
469681201

> <ChEBI ID of Ligand>


> <ChEMBL ID of Ligand>


> <DrugBank ID of Ligand>


> <IUPHAR_GRAC ID of Ligand>


> <KEGG ID of Ligand>


> <ZINC ID of Ligand>


> <Number of Protein Chains in Target (bigger than 1 implies a multichain complex)>
1

> <BindingDB Target Chain Sequence>
MAMQMQLEANADTSVEEESFGPQPISRLEQCGINANDVKKLEEAGFHTVEAVAYAPKKELINIKGISEAKADKILAEAAKLVPMGFTTATEFHQRRSEIIQITTGSKELDKLLQGGIETGSITEMFGEFRTGKTQICHTLAVTCQLPIDRGGGEGKAMYIDTEGTFRPERLLAVAERYGLSGSDVLDNVAYARAFNTDHQTQLLYQASAMMVESRYALLIVDSATALYRTDYSGRGELSARQMHLARFLRMLLRLADEFGVAVVITNQVVAQVDGAAMFAADPKKPIGGNIIAHASTTRLYLRKGRGETRICKIYDSPCLPEAEAMFAINADGVGDAKD

> <PDB ID(s) of Target Chain>
1N0W,5JZC,5NP7,5NWL,8BQ2,8BR2,8BSC

> <UniProt (SwissProt) Recommended Name of Target Chain>
DNA repair protein RAD51 homolog 1

> <UniProt (SwissProt) Entry Name of Target Chain>
RAD51_HUMAN

> <UniProt (SwissProt) Primary ID of Target Chain>
Q06609

> <UniProt (SwissProt) Secondary ID(s) of Target Chain>
B0FXP0 B2R8T6 Q6FHX9 Q6ZNA8 Q9BV60

> <UniProt (SwissProt) Alternative ID(s) of Target Chain>


> <UniProt (TrEMBL) Submitted Name of Target Chain>


> <UniProt (TrEMBL) Entry Name of Target Chain>


> <UniProt (TrEMBL) Primary ID of Target Chain>


> <UniProt (TrEMBL) Secondary ID(s) of Target Chain>


> <UniProt (TrEMBL) Alternative ID(s) of Target Chain>


$$$$
00369001.cdx
  Mrv0541 07212217012D          

 43 46  0  0  0  0            999 V2000
   -0.3072    1.9115    0.0000 C   0  0  0  0  0  0  0  0  0  0  0  0
   -0.3072    1.0865    0.0000 C   0  0  0  0  0  0  0  0  0  0  0  0
    0.4775    0.8316    0.0000 S   0  0  0  0  0  0  0  0  0  0  0  0
    0.9624    1.4990    0.0000 C   0  0  0  0  0  0  0  0  0  0  0  0
    0.4775    2.1665    0.0000 N   0  0  0  0  0  0  0  0  0  0  0  0
   -1.0216    0.6740    0.0000 C   0  0  0  0  0  0  0  0  0  0  0  0
   -1.7361    1.0865    0.0000 C   0  0  0  0  0  0  0  0  0  0  0  0
   -2.4506    0.6740    0.0000 C   0  0  0  0  0  0  0  0  0  0  0  0
   -2.4506   -0.1510    0.0000 C   0  0  0  0  0  0  0  0  0  0  0  0
   -1.7361   -0.5635    0.0000 C   0  0  0  0  0  0  0  0  0  0  0  0
   -1.0216   -0.1510    0.0000 C   0  0  0  0  0  0  0  0  0  0  0  0
   -0.3072   -0.5635    0.0000 S   0  0  0  0  0  0  0  0  0  0  0  0
    0.4073   -0.9760    0.0000 N   0  0  0  0  0  0  0  0  0  0  0  0
    0.1053    0.1510    0.0000 O   0  0  0  0  0  0  0  0  0  0  0  0
   -0.7197   -1.2780    0.0000 O   0  0  0  0  0  0  0  0  0  0  0  0
    1.1218   -0.5635    0.0000 C   0  0  0  0  0  0  0  0  0  0  0  0
    1.8363   -0.9760    0.0000 C   0  0  0  0  0  0  0  0  0  0  0  0
    1.1218    0.2615    0.0000 C   0  0  0  0  0  0  0  0  0  0  0  0
    1.8363   -0.1510    0.0000 C   0  0  0  0  0  0  0  0  0  0  0  0
   -3.1650   -0.5635    0.0000 C   0  0  0  0  0  0  0  0  0  0  0  0
   -3.8795   -0.1510    0.0000 N   0  0  0  0  0  0  0  0  0  0  0  0
   -4.5940   -0.5635    0.0000 S   0  0  0  0  0  0  0  0  0  0  0  0
    1.7874    1.4990    0.0000 C   0  0  0  0  0  0  0  0  0  0  0  0
    2.1999    0.7845    0.0000 C   0  0  0  0  0  0  0  0  0  0  0  0
    3.0249    0.7845    0.0000 C   0  0  0  0  0  0  0  0  0  0  0  0
    3.4374    1.4990    0.0000 C   0  0  0  0  0  0  0  0  0  0  0  0
    3.0249    2.2135    0.0000 C   0  0  0  0  0  0  0  0  0  0  0  0
    2.1999    2.2135    0.0000 C   0  0  0  0  0  0  0  0  0  0  0  0
    4.2624    1.4990    0.0000 N   0  0  0  0  0  0  0  0  0  0  0  0
    4.6749    0.7845    0.0000 C   0  0  0  0  0  0  0  0  0  0  0  0
    5.4999    0.7845    0.0000 O   0  0  0  0  0  0  0  0  0  0  0  0
    4.2624    0.0701    0.0000 O   0  0  0  0  0  0  0  0  0  0  0  0
    5.9124    1.4990    0.0000 C   0  0  0  0  0  0  0  0  0  0  0  0
    6.7374    1.4990    0.0000 C   0  0  0  0  0  0  0  0  0  0  0  0
    5.4999    2.2135    0.0000 C   0  0  0  0  0  0  0  0  0  0  0  0
   -5.3084   -0.9760    0.0000 C   0  0  0  0  0  0  0  0  0  0  0  0
   -5.0065    0.1510    0.0000 O   0  0  0  0  0  0  0  0  0  0  0  0
   -4.1815   -1.2780    0.0000 O   0  0  0  0  0  0  0  0  0  0  0  0
   -6.0229   -0.5635    0.0000 C   0  0  0  0  0  0  0  0  0  0  0  0
   -6.7374   -0.9760    0.0000 C   0  0  0  0  0  0  0  0  0  0  0  0
   -6.7374   -1.8010    0.0000 C   0  0  0  0  0  0  0  0  0  0  0  0
   -6.0229   -2.2135    0.0000 C   0  0  0  0  0  0  0  0  0  0  0  0
   -5.3084   -1.8010    0.0000 C   0  0  0  0  0  0  0  0  0  0  0  0
  1  2  4  0  0  0  0
  2  3  4  0  0  0  0
  3  4  4  0  0  0  0
  4  5  4  0  0  0  0
  5  1  4  0  0  0  0
  2  6  1  0  0  0  0
  6  7  4  0  0  0  0
  7  8  4  0  0  0  0
  8  9  4  0  0  0  0
  9 10  4  0  0  0  0
 10 11  4  0  0  0  0
 11  6  4  0  0  0  0
 11 12  1  0  0  0  0
 12 13  1  0  0  0  0
 12 14  2  0  0  0  0
 12 15  2  0  0  0  0
 13 16  1  0  0  0  0
 16 17  1  0  0  0  0
 16 18  1  0  0  0  0
 16 19  1  0  0  0  0
  9 20  1  0  0  0  0
 20 21  1  0  0  0  0
 21 22  1  0  0  0  0
  4 23  1  0  0  0  0
 23 24  4  0  0  0  0
 24 25  4  0  0  0  0
 25 26  4  0  0  0  0
 26 27  4  0  0  0  0
 27 28  4  0  0  0  0
 28 23  4  0  0  0  0
 26 29  1  0  0  0  0
 29 30  1  0  0  0  0
 30 31  1  0  0  0  0
 30 32  2  0  0  0  0
 31 33  1  0  0  0  0
 33 34  1  0  0  0  0
 33 35  1  0  0  0  0
 22 36  1  0  0  0  0
 22 37  2  0  0  0  0
 22 38  2  0  0  0  0
 36 39  4  0  0  0  0
 39 40  4  0  0  0  0
 40 41  4  0  0  0  0
 41 42  4  0  0  0  0
 42 43  4  0  0  0  0
 43 36  4  0  0  0  0
M  END
> <From>
www.bindingDB.org

> <BindingDB Reactant_set_id>
1155356

> <Ligand InChI>
InChI=1S/C30H34N4O6S3/c1-20(2)40-29(35)33-23-14-12-22(13-15-23)28-31-19-26(41-28)25-16-11-21(17-27(25)43(38,39)34-30(3,4)5)18-32-42(36,37)24-9-7-6-8-10-24/h6-17,19-20,32,34H,18H2,1-5H3,(H,33,35)

> <Ligand InChI Key>
QFOQEIISPFAHGW-UHFFFAOYSA-N

> <BindingDB MonomerID>
546506

> <BindingDB Ligand Name>
US11291655, No P6

> <Target Name>
DNA repair protein RAD51 homolog 1

> <Target Source Organism According to Curator or DataSource>
Homo sapiens

> <Ki (nM)>


> <IC50 (nM)>


> <Kd (nM)>


> <EC50 (nM)>
<10000

> <kon (M-1-s-1)>


> <koff (s-1)>


> <pH>


> <Temp C>


> <Curation/DataSource>
US Patent

> <Article DOI>


> <BindingDB Entry DOI>
10.7270/Q2NG4TV0

> <PMID>


> <PubChem AID>
aid1806421

> <Patent Number>
US11291655

> <Authors>
Castro, AC; McComas, CC; Vacca, J

> <Date of publication>
4/5/2022

> <Date in BindingDB>
7/21/2022

> <Institution>
Cyteir Therapeutics, Inc.

> <Link to Ligand in BindingDB>
http://www.bindingdb.org/bind/chemsearch/marvin/MolStructure.jsp?monomerid=546506

> <Link to Ligand-Target Pair in BindingDB>
http://www.bindingdb.org/jsp/dbsearch/PrimarySearch_ki.jsp?energyterm=kJ/mole&tag=pol&polymerid=4676&target=DNA+repair+protein+RAD51+homolog+1&column=ki&startPg=0&Increment=50&submit=Search

> <Link to Ligand-Target Pair in BindingDB>
http://www.bindingdb.org/jsp/dbsearch/PrimarySearch_ki.jsp?energyterm=kJ/mole&tag=r21&monomerid=546506&enzyme=DNA+repair+protein+RAD51+homolog+1&column=ki&startPg=0&Increment=50&submit=Search

> <Ligand HET ID in PDB>


> <PDB ID(s) for Ligand-Target Complex>


> <PubChem CID of Ligand>
137411877

> <PubChem SID of Ligand>
469681202

> <ChEBI ID of Ligand>


> <ChEMBL ID of Ligand>


> <DrugBank ID of Ligand>


> <IUPHAR_GRAC ID of Ligand>


> <KEGG ID of Ligand>


> <ZINC ID of Ligand>


> <Number of Protein Chains in Target (bigger than 1 implies a multichain complex)>
1

> <BindingDB Target Chain Sequence>
MAMQMQLEANADTSVEEESFGPQPISRLEQCGINANDVKKLEEAGFHTVEAVAYAPKKELINIKGISEAKADKILAEAAKLVPMGFTTATEFHQRRSEIIQITTGSKELDKLLQGGIETGSITEMFGEFRTGKTQICHTLAVTCQLPIDRGGGEGKAMYIDTEGTFRPERLLAVAERYGLSGSDVLDNVAYARAFNTDHQTQLLYQASAMMVESRYALLIVDSATALYRTDYSGRGELSARQMHLARFLRMLLRLADEFGVAVVITNQVVAQVDGAAMFAADPKKPIGGNIIAHASTTRLYLRKGRGETRICKIYDSPCLPEAEAMFAINADGVGDAKD

> <PDB ID(s) of Target Chain>
1N0W,5JZC,5NP7,5NWL,8BQ2,8BR2,8BSC

> <UniProt (SwissProt) Recommended Name of Target Chain>
DNA repair protein RAD51 homolog 1

> <UniProt (SwissProt) Entry Name of Target Chain>
RAD51_HUMAN

> <UniProt (SwissProt) Primary ID of Target Chain>
Q06609

> <UniProt (SwissProt) Secondary ID(s) of Target Chain>
B0FXP0 B2R8T6 Q6FHX9 Q6ZNA8 Q9BV60

> <UniProt (SwissProt) Alternative ID(s) of Target Chain>


> <UniProt (TrEMBL) Submitted Name of Target Chain>


> <UniProt (TrEMBL) Entry Name of Target Chain>


> <UniProt (TrEMBL) Primary ID of Target Chain>


> <UniProt (TrEMBL) Secondary ID(s) of Target Chain>


> <UniProt (TrEMBL) Alternative ID(s) of Target Chain>


$$$$
00370001.cdx
  Mrv0541 07212217012D          

 38 40  0  0  0  0            999 V2000
   -0.6644    1.4990    0.0000 C   0  0  0  0  0  0  0  0  0  0  0  0
   -0.6644    0.6740    0.0000 C   0  0  0  0  0  0  0  0  0  0  0  0
    0.1202    0.4191    0.0000 S   0  0  0  0  0  0  0  0  0  0  0  0
    0.6052    1.0865    0.0000 C   0  0  0  0  0  0  0  0  0  0  0  0
    0.1202    1.7540    0.0000 N   0  0  0  0  0  0  0  0  0  0  0  0
   -1.3789    0.2615    0.0000 C   0  0  0  0  0  0  0  0  0  0  0  0
   -2.0933    0.6740    0.0000 C   0  0  0  0  0  0  0  0  0  0  0  0
   -2.8078    0.2615    0.0000 C   0  0  0  0  0  0  0  0  0  0  0  0
   -2.8078   -0.5635    0.0000 C   0  0  0  0  0  0  0  0  0  0  0  0
   -2.0933   -0.9760    0.0000 C   0  0  0  0  0  0  0  0  0  0  0  0
   -1.3789   -0.5635    0.0000 C   0  0  0  0  0  0  0  0  0  0  0  0
   -0.6644   -0.9760    0.0000 S   0  0  0  0  0  0  0  0  0  0  0  0
    0.0501   -1.3885    0.0000 N   0  0  0  0  0  0  0  0  0  0  0  0
   -0.2519   -0.2615    0.0000 O   0  0  0  0  0  0  0  0  0  0  0  0
   -1.0769   -1.6905    0.0000 O   0  0  0  0  0  0  0  0  0  0  0  0
    0.7646   -0.9760    0.0000 C   0  0  0  0  0  0  0  0  0  0  0  0
    1.4790   -1.3885    0.0000 C   0  0  0  0  0  0  0  0  0  0  0  0
    0.7646   -0.1510    0.0000 C   0  0  0  0  0  0  0  0  0  0  0  0
    1.4790   -0.5635    0.0000 C   0  0  0  0  0  0  0  0  0  0  0  0
   -3.5223   -0.9760    0.0000 C   0  0  0  0  0  0  0  0  0  0  0  0
   -4.2367   -0.5635    0.0000 N   0  0  0  0  0  0  0  0  0  0  0  0
   -4.9512   -0.9760    0.0000 C   0  0  0  0  0  0  0  0  0  0  0  0
   -5.6657   -0.5635    0.0000 O   0  0  0  0  0  0  0  0  0  0  0  0
    1.4302    1.0865    0.0000 C   0  0  0  0  0  0  0  0  0  0  0  0
    1.8427    0.3720    0.0000 C   0  0  0  0  0  0  0  0  0  0  0  0
    2.6677    0.3720    0.0000 C   0  0  0  0  0  0  0  0  0  0  0  0
    3.0802    1.0865    0.0000 C   0  0  0  0  0  0  0  0  0  0  0  0
    2.6677    1.8010    0.0000 C   0  0  0  0  0  0  0  0  0  0  0  0
    1.8427    1.8010    0.0000 C   0  0  0  0  0  0  0  0  0  0  0  0
    3.9052    1.0865    0.0000 N   0  0  0  0  0  0  0  0  0  0  0  0
    4.3177    0.3720    0.0000 C   0  0  0  0  0  0  0  0  0  0  0  0
    5.1427    0.3720    0.0000 O   0  0  0  0  0  0  0  0  0  0  0  0
    3.9052   -0.3424    0.0000 O   0  0  0  0  0  0  0  0  0  0  0  0
    5.5552    1.0865    0.0000 C   0  0  0  0  0  0  0  0  0  0  0  0
    6.3802    1.0865    0.0000 C   0  0  0  0  0  0  0  0  0  0  0  0
    5.1427    1.8010    0.0000 C   0  0  0  0  0  0  0  0  0  0  0  0
   -6.3802   -0.9760    0.0000 C   0  0  0  0  0  0  0  0  0  0  0  0
   -4.9512   -1.8010    0.0000 O   0  0  0  0  0  0  0  0  0  0  0  0
  1  2  4  0  0  0  0
  2  3  4  0  0  0  0
  3  4  4  0  0  0  0
  4  5  4  0  0  0  0
  5  1  4  0  0  0  0
  2  6  1  0  0  0  0
  6  7  4  0  0  0  0
  7  8  4  0  0  0  0
  8  9  4  0  0  0  0
  9 10  4  0  0  0  0
 10 11  4  0  0  0  0
 11  6  4  0  0  0  0
 11 12  1  0  0  0  0
 12 13  1  0  0  0  0
 12 14  2  0  0  0  0
 12 15  2  0  0  0  0
 13 16  1  0  0  0  0
 16 17  1  0  0  0  0
 16 18  1  0  0  0  0
 16 19  1  0  0  0  0
  9 20  1  0  0  0  0
 20 21  1  0  0  0  0
 21 22  1  0  0  0  0
 22 23  1  0  0  0  0
 23 37  1  0  0  0  0
  4 24  1  0  0  0  0
 24 25  4  0  0  0  0
 25 26  4  0  0  0  0
 26 27  4  0  0  0  0
 27 28  4  0  0  0  0
 28 29  4  0  0  0  0
 29 24  4  0  0  0  0
 27 30  1  0  0  0  0
 30 31  1  0  0  0  0
 31 32  1  0  0  0  0
 31 33  2  0  0  0  0
 32 34  1  0  0  0  0
 34 35  1  0  0  0  0
 34 36  1  0  0  0  0
 22 38  2  0  0  0  0
M  END
> <From>
www.bindingDB.org

> <BindingDB Reactant_set_id>
1155357

> <Ligand InChI>
InChI=1S/C26H32N4O6S2/c1-16(2)36-25(32)29-19-10-8-18(9-11-19)23-27-15-21(37-23)20-12-7-17(14-28-24(31)35-6)13-22(20)38(33,34)30-26(3,4)5/h7-13,15-16,30H,14H2,1-6H3,(H,28,31)(H,29,32)

> <Ligand InChI Key>
NSAVGSPOJGROLK-UHFFFAOYSA-N

> <BindingDB MonomerID>
546507

> <BindingDB Ligand Name>
US11291655, No P7

> <Target Name>
DNA repair protein RAD51 homolog 1

> <Target Source Organism According to Curator or DataSource>
Homo sapiens

> <Ki (nM)>


> <IC50 (nM)>


> <Kd (nM)>


> <EC50 (nM)>
<10000

> <kon (M-1-s-1)>


> <koff (s-1)>


> <pH>


> <Temp C>


> <Curation/DataSource>
US Patent

> <Article DOI>


> <BindingDB Entry DOI>
10.7270/Q2NG4TV0

> <PMID>


> <PubChem AID>
aid1806421

> <Patent Number>
US11291655

> <Authors>
Castro, AC; McComas, CC; Vacca, J

> <Date of publication>
4/5/2022

> <Date in BindingDB>
7/21/2022

> <Institution>
Cyteir Therapeutics, Inc.

> <Link to Ligand in BindingDB>
http://www.bindingdb.org/bind/chemsearch/marvin/MolStructure.jsp?monomerid=546507

> <Link to Ligand-Target Pair in BindingDB>
http://www.bindingdb.org/jsp/dbsearch/PrimarySearch_ki.jsp?energyterm=kJ/mole&tag=pol&polymerid=4676&target=DNA+repair+protein+RAD51+homolog+1&column=ki&startPg=0&Increment=50&submit=Search

> <Link to Ligand-Target Pair in BindingDB>
http://www.bindingdb.org/jsp/dbsearch/PrimarySearch_ki.jsp?energyterm=kJ/mole&tag=r21&monomerid=546507&enzyme=DNA+repair+protein+RAD51+homolog+1&column=ki&startPg=0&Increment=50&submit=Search

> <Ligand HET ID in PDB>


> <PDB ID(s) for Ligand-Target Complex>


> <PubChem CID of Ligand>
137412133

> <PubChem SID of Ligand>
469681203

> <ChEBI ID of Ligand>


> <ChEMBL ID of Ligand>


> <DrugBank ID of Ligand>


> <IUPHAR_GRAC ID of Ligand>


> <KEGG ID of Ligand>


> <ZINC ID of Ligand>


> <Number of Protein Chains in Target (bigger than 1 implies a multichain complex)>
1

> <BindingDB Target Chain Sequence>
MAMQMQLEANADTSVEEESFGPQPISRLEQCGINANDVKKLEEAGFHTVEAVAYAPKKELINIKGISEAKADKILAEAAKLVPMGFTTATEFHQRRSEIIQITTGSKELDKLLQGGIETGSITEMFGEFRTGKTQICHTLAVTCQLPIDRGGGEGKAMYIDTEGTFRPERLLAVAERYGLSGSDVLDNVAYARAFNTDHQTQLLYQASAMMVESRYALLIVDSATALYRTDYSGRGELSARQMHLARFLRMLLRLADEFGVAVVITNQVVAQVDGAAMFAADPKKPIGGNIIAHASTTRLYLRKGRGETRICKIYDSPCLPEAEAMFAINADGVGDAKD

> <PDB ID(s) of Target Chain>
1N0W,5JZC,5NP7,5NWL,8BQ2,8BR2,8BSC

> <UniProt (SwissProt) Recommended Name of Target Chain>
DNA repair protein RAD51 homolog 1

> <UniProt (SwissProt) Entry Name of Target Chain>
RAD51_HUMAN

> <UniProt (SwissProt) Primary ID of Target Chain>
Q06609

> <UniProt (SwissProt) Secondary ID(s) of Target Chain>
B0FXP0 B2R8T6 Q6FHX9 Q6ZNA8 Q9BV60

> <UniProt (SwissProt) Alternative ID(s) of Target Chain>


> <UniProt (TrEMBL) Submitted Name of Target Chain>


> <UniProt (TrEMBL) Entry Name of Target Chain>


> <UniProt (TrEMBL) Primary ID of Target Chain>


> <UniProt (TrEMBL) Secondary ID(s) of Target Chain>


> <UniProt (TrEMBL) Alternative ID(s) of Target Chain>


$$$$
00371001.cdx
  Mrv0541 07212217012D          

 39 41  0  0  0  0            999 V2000
   -0.3072    1.4990    0.0000 C   0  0  0  0  0  0  0  0  0  0  0  0
   -0.3072    0.6740    0.0000 C   0  0  0  0  0  0  0  0  0  0  0  0
    0.4775    0.4191    0.0000 S   0  0  0  0  0  0  0  0  0  0  0  0
    0.9624    1.0865    0.0000 C   0  0  0  0  0  0  0  0  0  0  0  0
    0.4775    1.7540    0.0000 N   0  0  0  0  0  0  0  0  0  0  0  0
   -1.0216    0.2615    0.0000 C   0  0  0  0  0  0  0  0  0  0  0  0
   -1.7361    0.6740    0.0000 C   0  0  0  0  0  0  0  0  0  0  0  0
   -2.4506    0.2615    0.0000 C   0  0  0  0  0  0  0  0  0  0  0  0
   -2.4506   -0.5635    0.0000 C   0  0  0  0  0  0  0  0  0  0  0  0
   -1.7361   -0.9760    0.0000 C   0  0  0  0  0  0  0  0  0  0  0  0
   -1.0216   -0.5635    0.0000 C   0  0  0  0  0  0  0  0  0  0  0  0
   -0.3072   -0.9760    0.0000 S   0  0  0  0  0  0  0  0  0  0  0  0
    0.4073   -1.3885    0.0000 N   0  0  0  0  0  0  0  0  0  0  0  0
    0.1053   -0.2615    0.0000 O   0  0  0  0  0  0  0  0  0  0  0  0
   -0.7197   -1.6905    0.0000 O   0  0  0  0  0  0  0  0  0  0  0  0
    1.1218   -0.9760    0.0000 C   0  0  0  0  0  0  0  0  0  0  0  0
    1.8363   -1.3885    0.0000 C   0  0  0  0  0  0  0  0  0  0  0  0
    1.1218   -0.1510    0.0000 C   0  0  0  0  0  0  0  0  0  0  0  0
    1.8363   -0.5635    0.0000 C   0  0  0  0  0  0  0  0  0  0  0  0
   -3.1650   -0.9760    0.0000 C   0  0  0  0  0  0  0  0  0  0  0  0
   -3.8795   -0.5635    0.0000 N   0  0  0  0  0  0  0  0  0  0  0  0
   -4.5940   -0.9760    0.0000 C   0  0  0  0  0  0  0  0  0  0  0  0
   -5.3084   -0.5635    0.0000 O   0  0  0  0  0  0  0  0  0  0  0  0
    1.7874    1.0865    0.0000 C   0  0  0  0  0  0  0  0  0  0  0  0
    2.1999    0.3720    0.0000 C   0  0  0  0  0  0  0  0  0  0  0  0
    3.0249    0.3720    0.0000 C   0  0  0  0  0  0  0  0  0  0  0  0
    3.4374    1.0865    0.0000 C   0  0  0  0  0  0  0  0  0  0  0  0
    3.0249    1.8010    0.0000 C   0  0  0  0  0  0  0  0  0  0  0  0
    2.1999    1.8010    0.0000 C   0  0  0  0  0  0  0  0  0  0  0  0
    4.2624    1.0865    0.0000 N   0  0  0  0  0  0  0  0  0  0  0  0
    4.6749    0.3720    0.0000 C   0  0  0  0  0  0  0  0  0  0  0  0
    5.4999    0.3720    0.0000 O   0  0  0  0  0  0  0  0  0  0  0  0
    4.2624   -0.3424    0.0000 O   0  0  0  0  0  0  0  0  0  0  0  0
    5.9124    1.0865    0.0000 C   0  0  0  0  0  0  0  0  0  0  0  0
    6.7374    1.0865    0.0000 C   0  0  0  0  0  0  0  0  0  0  0  0
    5.4999    1.8010    0.0000 C   0  0  0  0  0  0  0  0  0  0  0  0
   -6.0229   -0.9760    0.0000 C   0  0  0  0  0  0  0  0  0  0  0  0
   -4.5940   -1.8010    0.0000 O   0  0  0  0  0  0  0  0  0  0  0  0
   -6.7374   -0.5635    0.0000 C   0  0  0  0  0  0  0  0  0  0  0  0
  1  2  4  0  0  0  0
  2  3  4  0  0  0  0
  3  4  4  0  0  0  0
  4  5  4  0  0  0  0
  5  1  4  0  0  0  0
  2  6  1  0  0  0  0
  6  7  4  0  0  0  0
  7  8  4  0  0  0  0
  8  9  4  0  0  0  0
  9 10  4  0  0  0  0
 10 11  4  0  0  0  0
 11  6  4  0  0  0  0
 11 12  1  0  0  0  0
 12 13  1  0  0  0  0
 12 14  2  0  0  0  0
 12 15  2  0  0  0  0
 13 16  1  0  0  0  0
 16 17  1  0  0  0  0
 16 18  1  0  0  0  0
 16 19  1  0  0  0  0
  9 20  1  0  0  0  0
 20 21  1  0  0  0  0
 21 22  1  0  0  0  0
 22 23  1  0  0  0  0
 23 37  1  0  0  0  0
  4 24  1  0  0  0  0
 24 25  4  0  0  0  0
 25 26  4  0  0  0  0
 26 27  4  0  0  0  0
 27 28  4  0  0  0  0
 28 29  4  0  0  0  0
 29 24  4  0  0  0  0
 27 30  1  0  0  0  0
 30 31  1  0  0  0  0
 31 32  1  0  0  0  0
 31 33  2  0  0  0  0
 32 34  1  0  0  0  0
 34 35  1  0  0  0  0
 34 36  1  0  0  0  0
 22 38  2  0  0  0  0
 37 39  1  0  0  0  0
M  END
> <From>
www.bindingDB.org

> <BindingDB Reactant_set_id>
1155358

> <Ligand InChI>
InChI=1S/C27H34N4O6S2/c1-7-36-25(32)29-15-18-8-13-21(23(14-18)39(34,35)31-27(4,5)6)22-16-28-24(38-22)19-9-11-20(12-10-19)30-26(33)37-17(2)3/h8-14,16-17,31H,7,15H2,1-6H3,(H,29,32)(H,30,33)

> <Ligand InChI Key>
AHDFDSKPCPKPKN-UHFFFAOYSA-N

> <BindingDB MonomerID>
546508

> <BindingDB Ligand Name>
US11291655, No P8

> <Target Name>
DNA repair protein RAD51 homolog 1

> <Target Source Organism According to Curator or DataSource>
Homo sapiens

> <Ki (nM)>


> <IC50 (nM)>


> <Kd (nM)>


> <EC50 (nM)>
<10000

> <kon (M-1-s-1)>


> <koff (s-1)>


> <pH>


> <Temp C>


> <Curation/DataSource>
US Patent

> <Article DOI>


> <BindingDB Entry DOI>
10.7270/Q2NG4TV0

> <PMID>


> <PubChem AID>
aid1806421

> <Patent Number>
US11291655

> <Authors>
Castro, AC; McComas, CC; Vacca, J

> <Date of publication>
4/5/2022

> <Date in BindingDB>
7/21/2022

> <Institution>
Cyteir Therapeutics, Inc.

> <Link to Ligand in BindingDB>
http://www.bindingdb.org/bind/chemsearch/marvin/MolStructure.jsp?monomerid=546508

> <Link to Ligand-Target Pair in BindingDB>
http://www.bindingdb.org/jsp/dbsearch/PrimarySearch_ki.jsp?energyterm=kJ/mole&tag=pol&polymerid=4676&target=DNA+repair+protein+RAD51+homolog+1&column=ki&startPg=0&Increment=50&submit=Search

> <Link to Ligand-Target Pair in BindingDB>
http://www.bindingdb.org/jsp/dbsearch/PrimarySearch_ki.jsp?energyterm=kJ/mole&tag=r21&monomerid=546508&enzyme=DNA+repair+protein+RAD51+homolog+1&column=ki&startPg=0&Increment=50&submit=Search

> <Ligand HET ID in PDB>


> <PDB ID(s) for Ligand-Target Complex>


> <PubChem CID of Ligand>
137411894

> <PubChem SID of Ligand>
469681204

> <ChEBI ID of Ligand>


> <ChEMBL ID of Ligand>


> <DrugBank ID of Ligand>


> <IUPHAR_GRAC ID of Ligand>


> <KEGG ID of Ligand>


> <ZINC ID of Ligand>


> <Number of Protein Chains in Target (bigger than 1 implies a multichain complex)>
1

> <BindingDB Target Chain Sequence>
MAMQMQLEANADTSVEEESFGPQPISRLEQCGINANDVKKLEEAGFHTVEAVAYAPKKELINIKGISEAKADKILAEAAKLVPMGFTTATEFHQRRSEIIQITTGSKELDKLLQGGIETGSITEMFGEFRTGKTQICHTLAVTCQLPIDRGGGEGKAMYIDTEGTFRPERLLAVAERYGLSGSDVLDNVAYARAFNTDHQTQLLYQASAMMVESRYALLIVDSATALYRTDYSGRGELSARQMHLARFLRMLLRLADEFGVAVVITNQVVAQVDGAAMFAADPKKPIGGNIIAHASTTRLYLRKGRGETRICKIYDSPCLPEAEAMFAINADGVGDAKD

> <PDB ID(s) of Target Chain>
1N0W,5JZC,5NP7,5NWL,8BQ2,8BR2,8BSC

> <UniProt (SwissProt) Recommended Name of Target Chain>
DNA repair protein RAD51 homolog 1

> <UniProt (SwissProt) Entry Name of Target Chain>
RAD51_HUMAN

> <UniProt (SwissProt) Primary ID of Target Chain>
Q06609

> <UniProt (SwissProt) Secondary ID(s) of Target Chain>
B0FXP0 B2R8T6 Q6FHX9 Q6ZNA8 Q9BV60

> <UniProt (SwissProt) Alternative ID(s) of Target Chain>


> <UniProt (TrEMBL) Submitted Name of Target Chain>


> <UniProt (TrEMBL) Entry Name of Target Chain>


> <UniProt (TrEMBL) Primary ID of Target Chain>


> <UniProt (TrEMBL) Secondary ID(s) of Target Chain>


> <UniProt (TrEMBL) Alternative ID(s) of Target Chain>


$$$$
00372001.cdx
  Mrv0541 07212217012D          

 40 42  0  0  0  0            999 V2000
   -0.3072    1.4990    0.0000 C   0  0  0  0  0  0  0  0  0  0  0  0
   -0.3072    0.6740    0.0000 C   0  0  0  0  0  0  0  0  0  0  0  0
    0.4775    0.4191    0.0000 S   0  0  0  0  0  0  0  0  0  0  0  0
    0.9624    1.0865    0.0000 C   0  0  0  0  0  0  0  0  0  0  0  0
    0.4775    1.7540    0.0000 N   0  0  0  0  0  0  0  0  0  0  0  0
   -1.0216    0.2615    0.0000 C   0  0  0  0  0  0  0  0  0  0  0  0
   -1.7361    0.6740    0.0000 C   0  0  0  0  0  0  0  0  0  0  0  0
   -2.4506    0.2615    0.0000 C   0  0  0  0  0  0  0  0  0  0  0  0
   -2.4506   -0.5635    0.0000 C   0  0  0  0  0  0  0  0  0  0  0  0
   -1.7361   -0.9760    0.0000 C   0  0  0  0  0  0  0  0  0  0  0  0
   -1.0216   -0.5635    0.0000 C   0  0  0  0  0  0  0  0  0  0  0  0
   -0.3072   -0.9760    0.0000 S   0  0  0  0  0  0  0  0  0  0  0  0
    0.4073   -1.3885    0.0000 N   0  0  0  0  0  0  0  0  0  0  0  0
    0.1053   -0.2615    0.0000 O   0  0  0  0  0  0  0  0  0  0  0  0
   -0.7197   -1.6905    0.0000 O   0  0  0  0  0  0  0  0  0  0  0  0
    1.1218   -0.9760    0.0000 C   0  0  0  0  0  0  0  0  0  0  0  0
    1.8363   -1.3885    0.0000 C   0  0  0  0  0  0  0  0  0  0  0  0
    1.1218   -0.1510    0.0000 C   0  0  0  0  0  0  0  0  0  0  0  0
    1.8363   -0.5635    0.0000 C   0  0  0  0  0  0  0  0  0  0  0  0
   -3.1650   -0.9760    0.0000 C   0  0  0  0  0  0  0  0  0  0  0  0
   -3.8795   -0.5635    0.0000 N   0  0  0  0  0  0  0  0  0  0  0  0
   -4.5940   -0.9760    0.0000 C   0  0  0  0  0  0  0  0  0  0  0  0
   -5.3084   -0.5635    0.0000 O   0  0  0  0  0  0  0  0  0  0  0  0
    1.7874    1.0865    0.0000 C   0  0  0  0  0  0  0  0  0  0  0  0
    2.1999    0.3720    0.0000 C   0  0  0  0  0  0  0  0  0  0  0  0
    3.0249    0.3720    0.0000 C   0  0  0  0  0  0  0  0  0  0  0  0
    3.4374    1.0865    0.0000 C   0  0  0  0  0  0  0  0  0  0  0  0
    3.0249    1.8010    0.0000 C   0  0  0  0  0  0  0  0  0  0  0  0
    2.1999    1.8010    0.0000 C   0  0  0  0  0  0  0  0  0  0  0  0
    4.2624    1.0865    0.0000 N   0  0  0  0  0  0  0  0  0  0  0  0
    4.6749    0.3720    0.0000 C   0  0  0  0  0  0  0  0  0  0  0  0
    5.4999    0.3720    0.0000 O   0  0  0  0  0  0  0  0  0  0  0  0
    4.2624   -0.3424    0.0000 O   0  0  0  0  0  0  0  0  0  0  0  0
    5.9124    1.0865    0.0000 C   0  0  0  0  0  0  0  0  0  0  0  0
    6.7374    1.0865    0.0000 C   0  0  0  0  0  0  0  0  0  0  0  0
    5.4999    1.8010    0.0000 C   0  0  0  0  0  0  0  0  0  0  0  0
   -6.0229   -0.9760    0.0000 C   0  0  0  0  0  0  0  0  0  0  0  0
   -4.5940   -1.8010    0.0000 O   0  0  0  0  0  0  0  0  0  0  0  0
   -6.7374   -0.5635    0.0000 C   0  0  0  0  0  0  0  0  0  0  0  0
   -6.0229   -1.8010    0.0000 C   0  0  0  0  0  0  0  0  0  0  0  0
  1  2  4  0  0  0  0
  2  3  4  0  0  0  0
  3  4  4  0  0  0  0
  4  5  4  0  0  0  0
  5  1  4  0  0  0  0
  2  6  1  0  0  0  0
  6  7  4  0  0  0  0
  7  8  4  0  0  0  0
  8  9  4  0  0  0  0
  9 10  4  0  0  0  0
 10 11  4  0  0  0  0
 11  6  4  0  0  0  0
 11 12  1  0  0  0  0
 12 13  1  0  0  0  0
 12 14  2  0  0  0  0
 12 15  2  0  0  0  0
 13 16  1  0  0  0  0
 16 17  1  0  0  0  0
 16 18  1  0  0  0  0
 16 19  1  0  0  0  0
  9 20  1  0  0  0  0
 20 21  1  0  0  0  0
 21 22  1  0  0  0  0
 22 23  1  0  0  0  0
 23 37  1  0  0  0  0
  4 24  1  0  0  0  0
 24 25  4  0  0  0  0
 25 26  4  0  0  0  0
 26 27  4  0  0  0  0
 27 28  4  0  0  0  0
 28 29  4  0  0  0  0
 29 24  4  0  0  0  0
 27 30  1  0  0  0  0
 30 31  1  0  0  0  0
 31 32  1  0  0  0  0
 31 33  2  0  0  0  0
 32 34  1  0  0  0  0
 34 35  1  0  0  0  0
 34 36  1  0  0  0  0
 22 38  2  0  0  0  0
 37 39  1  0  0  0  0
 37 40  1  0  0  0  0
M  END
> <From>
www.bindingDB.org

> <BindingDB Reactant_set_id>
1155359

> <Ligand InChI>
InChI=1S/C28H36N4O6S2/c1-17(2)37-26(33)30-15-19-8-13-22(24(14-19)40(35,36)32-28(5,6)7)23-16-29-25(39-23)20-9-11-21(12-10-20)31-27(34)38-18(3)4/h8-14,16-18,32H,15H2,1-7H3,(H,30,33)(H,31,34)

> <Ligand InChI Key>
YEDWTSYIAMYHCN-UHFFFAOYSA-N

> <BindingDB MonomerID>
546509

> <BindingDB Ligand Name>
US11291655, No P9

> <Target Name>
DNA repair protein RAD51 homolog 1

> <Target Source Organism According to Curator or DataSource>
Homo sapiens

> <Ki (nM)>


> <IC50 (nM)>


> <Kd (nM)>


> <EC50 (nM)>
>10000

> <kon (M-1-s-1)>


> <koff (s-1)>


> <pH>


> <Temp C>


> <Curation/DataSource>
US Patent

> <Article DOI>


> <BindingDB Entry DOI>
10.7270/Q2NG4TV0

> <PMID>


> <PubChem AID>
aid1806421

> <Patent Number>
US11291655

> <Authors>
Castro, AC; McComas, CC; Vacca, J

> <Date of publication>
4/5/2022

> <Date in BindingDB>
7/21/2022

> <Institution>
Cyteir Therapeutics, Inc.

> <Link to Ligand in BindingDB>
http://www.bindingdb.org/bind/chemsearch/marvin/MolStructure.jsp?monomerid=546509

> <Link to Ligand-Target Pair in BindingDB>
http://www.bindingdb.org/jsp/dbsearch/PrimarySearch_ki.jsp?energyterm=kJ/mole&tag=pol&polymerid=4676&target=DNA+repair+protein+RAD51+homolog+1&column=ki&startPg=0&Increment=50&submit=Search

> <Link to Ligand-Target Pair in BindingDB>
http://www.bindingdb.org/jsp/dbsearch/PrimarySearch_ki.jsp?energyterm=kJ/mole&tag=r21&monomerid=546509&enzyme=DNA+repair+protein+RAD51+homolog+1&column=ki&startPg=0&Increment=50&submit=Search

> <Ligand HET ID in PDB>


> <PDB ID(s) for Ligand-Target Complex>


> <PubChem CID of Ligand>
137411758

> <PubChem SID of Ligand>
469681205

> <ChEBI ID of Ligand>


> <ChEMBL ID of Ligand>


> <DrugBank ID of Ligand>


> <IUPHAR_GRAC ID of Ligand>


> <KEGG ID of Ligand>


> <ZINC ID of Ligand>


> <Number of Protein Chains in Target (bigger than 1 implies a multichain complex)>
1

> <BindingDB Target Chain Sequence>
MAMQMQLEANADTSVEEESFGPQPISRLEQCGINANDVKKLEEAGFHTVEAVAYAPKKELINIKGISEAKADKILAEAAKLVPMGFTTATEFHQRRSEIIQITTGSKELDKLLQGGIETGSITEMFGEFRTGKTQICHTLAVTCQLPIDRGGGEGKAMYIDTEGTFRPERLLAVAERYGLSGSDVLDNVAYARAFNTDHQTQLLYQASAMMVESRYALLIVDSATALYRTDYSGRGELSARQMHLARFLRMLLRLADEFGVAVVITNQVVAQVDGAAMFAADPKKPIGGNIIAHASTTRLYLRKGRGETRICKIYDSPCLPEAEAMFAINADGVGDAKD

> <PDB ID(s) of Target Chain>
1N0W,5JZC,5NP7,5NWL,8BQ2,8BR2,8BSC

> <UniProt (SwissProt) Recommended Name of Target Chain>
DNA repair protein RAD51 homolog 1

> <UniProt (SwissProt) Entry Name of Target Chain>
RAD51_HUMAN

> <UniProt (SwissProt) Primary ID of Target Chain>
Q06609

> <UniProt (SwissProt) Secondary ID(s) of Target Chain>
B0FXP0 B2R8T6 Q6FHX9 Q6ZNA8 Q9BV60

> <UniProt (SwissProt) Alternative ID(s) of Target Chain>


> <UniProt (TrEMBL) Submitted Name of Target Chain>


> <UniProt (TrEMBL) Entry Name of Target Chain>


> <UniProt (TrEMBL) Primary ID of Target Chain>


> <UniProt (TrEMBL) Secondary ID(s) of Target Chain>


> <UniProt (TrEMBL) Alternative ID(s) of Target Chain>


$$$$
00373001.cdx
  Mrv0541 07212217012D          

 37 39  0  0  0  0            999 V2000
    0.1990    1.6658    0.0000 N   0  0  0  0  0  0  0  0  0  0  0  0
   -0.6260    1.6658    0.0000 C   0  0  0  0  0  0  0  0  0  0  0  0
   -0.8810    0.8812    0.0000 C   0  0  0  0  0  0  0  0  0  0  0  0
   -0.2135    0.3963    0.0000 S   0  0  0  0  0  0  0  0  0  0  0  0
    0.4539    0.8812    0.0000 C   0  0  0  0  0  0  0  0  0  0  0  0
   -1.6779    0.6677    0.0000 C   0  0  0  0  0  0  0  0  0  0  0  0
   -2.2612    1.2510    0.0000 C   0  0  0  0  0  0  0  0  0  0  0  0
   -3.0581    1.0375    0.0000 C   0  0  0  0  0  0  0  0  0  0  0  0
   -3.2716    0.2406    0.0000 C   0  0  0  0  0  0  0  0  0  0  0  0
   -2.6883   -0.3428    0.0000 C   0  0  0  0  0  0  0  0  0  0  0  0
   -1.8914   -0.1292    0.0000 C   0  0  0  0  0  0  0  0  0  0  0  0
   -1.3080   -0.7126    0.0000 S   0  0  0  0  0  0  0  0  0  0  0  0
    1.2508    0.6677    0.0000 C   0  0  0  0  0  0  0  0  0  0  0  0
    1.4643   -0.1292    0.0000 C   0  0  0  0  0  0  0  0  0  0  0  0
    2.2612   -0.3428    0.0000 C   0  0  0  0  0  0  0  0  0  0  0  0
    2.8446    0.2406    0.0000 C   0  0  0  0  0  0  0  0  0  0  0  0
    2.6311    1.0375    0.0000 C   0  0  0  0  0  0  0  0  0  0  0  0
    1.8342    1.2510    0.0000 C   0  0  0  0  0  0  0  0  0  0  0  0
    3.6415    0.0271    0.0000 N   0  0  0  0  0  0  0  0  0  0  0  0
    3.8550   -0.7698    0.0000 C   0  0  0  0  0  0  0  0  0  0  0  0
    4.6519   -0.9833    0.0000 O   0  0  0  0  0  0  0  0  0  0  0  0
    3.2716   -1.3532    0.0000 O   0  0  0  0  0  0  0  0  0  0  0  0
    5.2352   -0.4000    0.0000 C   0  0  0  0  0  0  0  0  0  0  0  0
   -4.0685    0.0271    0.0000 C   0  0  0  0  0  0  0  0  0  0  0  0
   -4.6519    0.6104    0.0000 N   0  0  0  0  0  0  0  0  0  0  0  0
   -5.4488    0.3969    0.0000 C   0  0  0  0  0  0  0  0  0  0  0  0
   -6.0321    0.9803    0.0000 C   0  0  0  0  0  0  0  0  0  0  0  0
    6.0321   -0.6135    0.0000 C   0  0  0  0  0  0  0  0  0  0  0  0
    5.0217    0.3969    0.0000 C   0  0  0  0  0  0  0  0  0  0  0  0
   -0.7247   -1.2960    0.0000 N   0  0  0  0  0  0  0  0  0  0  0  0
   -0.7247   -0.1292    0.0000 O   0  0  0  0  0  0  0  0  0  0  0  0
   -1.8914   -1.2960    0.0000 O   0  0  0  0  0  0  0  0  0  0  0  0
    0.0722   -1.0824    0.0000 C   0  0  0  0  0  0  0  0  0  0  0  0
    0.6556   -1.6658    0.0000 C   0  0  0  0  0  0  0  0  0  0  0  0
    0.2858   -0.2855    0.0000 C   0  0  0  0  0  0  0  0  0  0  0  0
    0.8691   -0.8689    0.0000 C   0  0  0  0  0  0  0  0  0  0  0  0
   -5.6623   -0.4000    0.0000 O   0  0  0  0  0  0  0  0  0  0  0  0
  1  2  4  0  0  0  0
  2  3  4  0  0  0  0
  3  4  4  0  0  0  0
  4  5  4  0  0  0  0
  5  1  4  0  0  0  0
  3  6  1  0  0  0  0
  6  7  4  0  0  0  0
  7  8  4  0  0  0  0
  8  9  4  0  0  0  0
  9 10  4  0  0  0  0
 10 11  4  0  0  0  0
 11  6  4  0  0  0  0
  9 24  1  0  0  0  0
 11 12  1  0  0  0  0
  5 13  1  0  0  0  0
 13 14  4  0  0  0  0
 14 15  4  0  0  0  0
 15 16  4  0  0  0  0
 16 17  4  0  0  0  0
 17 18  4  0  0  0  0
 18 13  4  0  0  0  0
 16 19  1  0  0  0  0
 19 20  1  0  0  0  0
 20 21  1  0  0  0  0
 20 22  2  0  0  0  0
 21 23  1  0  0  0  0
 24 25  1  0  0  0  0
 25 26  1  0  0  0  0
 26 27  1  0  0  0  0
 23 28  1  0  0  0  0
 23 29  1  0  0  0  0
 12 30  1  0  0  0  0
 12 31  2  0  0  0  0
 12 32  2  0  0  0  0
 30 33  1  0  0  0  0
 33 34  1  0  0  0  0
 33 35  1  0  0  0  0
 33 36  1  0  0  0  0
 26 37  2  0  0  0  0
M  END
> <From>
www.bindingDB.org

> <BindingDB Reactant_set_id>
1155360

> <Ligand InChI>
InChI=1S/C26H32N4O5S2/c1-16(2)35-25(32)29-20-10-8-19(9-11-20)24-28-15-22(36-24)21-12-7-18(14-27-17(3)31)13-23(21)37(33,34)30-26(4,5)6/h7-13,15-16,30H,14H2,1-6H3,(H,27,31)(H,29,32)

> <Ligand InChI Key>
NIQHDVPUVDNMFL-UHFFFAOYSA-N

> <BindingDB MonomerID>
546510

> <BindingDB Ligand Name>
US11291655, No Q1

> <Target Name>
DNA repair protein RAD51 homolog 1

> <Target Source Organism According to Curator or DataSource>
Homo sapiens

> <Ki (nM)>


> <IC50 (nM)>


> <Kd (nM)>


> <EC50 (nM)>
<10000

> <kon (M-1-s-1)>


> <koff (s-1)>


> <pH>


> <Temp C>


> <Curation/DataSource>
US Patent

> <Article DOI>


> <BindingDB Entry DOI>
10.7270/Q2NG4TV0

> <PMID>


> <PubChem AID>
aid1806421

> <Patent Number>
US11291655

> <Authors>
Castro, AC; McComas, CC; Vacca, J

> <Date of publication>
4/5/2022

> <Date in BindingDB>
7/21/2022

> <Institution>
Cyteir Therapeutics, Inc.

> <Link to Ligand in BindingDB>
http://www.bindingdb.org/bind/chemsearch/marvin/MolStructure.jsp?monomerid=546510

> <Link to Ligand-Target Pair in BindingDB>
http://www.bindingdb.org/jsp/dbsearch/PrimarySearch_ki.jsp?energyterm=kJ/mole&tag=pol&polymerid=4676&target=DNA+repair+protein+RAD51+homolog+1&column=ki&startPg=0&Increment=50&submit=Search

> <Link to Ligand-Target Pair in BindingDB>
http://www.bindingdb.org/jsp/dbsearch/PrimarySearch_ki.jsp?energyterm=kJ/mole&tag=r21&monomerid=546510&enzyme=DNA+repair+protein+RAD51+homolog+1&column=ki&startPg=0&Increment=50&submit=Search

> <Ligand HET ID in PDB>


> <PDB ID(s) for Ligand-Target Complex>


> <PubChem CID of Ligand>
137408557

> <PubChem SID of Ligand>
469681206

> <ChEBI ID of Ligand>


> <ChEMBL ID of Ligand>


> <DrugBank ID of Ligand>


> <IUPHAR_GRAC ID of Ligand>


> <KEGG ID of Ligand>


> <ZINC ID of Ligand>


> <Number of Protein Chains in Target (bigger than 1 implies a multichain complex)>
1

> <BindingDB Target Chain Sequence>
MAMQMQLEANADTSVEEESFGPQPISRLEQCGINANDVKKLEEAGFHTVEAVAYAPKKELINIKGISEAKADKILAEAAKLVPMGFTTATEFHQRRSEIIQITTGSKELDKLLQGGIETGSITEMFGEFRTGKTQICHTLAVTCQLPIDRGGGEGKAMYIDTEGTFRPERLLAVAERYGLSGSDVLDNVAYARAFNTDHQTQLLYQASAMMVESRYALLIVDSATALYRTDYSGRGELSARQMHLARFLRMLLRLADEFGVAVVITNQVVAQVDGAAMFAADPKKPIGGNIIAHASTTRLYLRKGRGETRICKIYDSPCLPEAEAMFAINADGVGDAKD

> <PDB ID(s) of Target Chain>
1N0W,5JZC,5NP7,5NWL,8BQ2,8BR2,8BSC

> <UniProt (SwissProt) Recommended Name of Target Chain>
DNA repair protein RAD51 homolog 1

> <UniProt (SwissProt) Entry Name of Target Chain>
RAD51_HUMAN

> <UniProt (SwissProt) Primary ID of Target Chain>
Q06609

> <UniProt (SwissProt) Secondary ID(s) of Target Chain>
B0FXP0 B2R8T6 Q6FHX9 Q6ZNA8 Q9BV60

> <UniProt (SwissProt) Alternative ID(s) of Target Chain>


> <UniProt (TrEMBL) Submitted Name of Target Chain>


> <UniProt (TrEMBL) Entry Name of Target Chain>


> <UniProt (TrEMBL) Primary ID of Target Chain>


> <UniProt (TrEMBL) Secondary ID(s) of Target Chain>


> <UniProt (TrEMBL) Alternative ID(s) of Target Chain>


$$$$
00374001.cdx
  Mrv0541 07212217012D          

 44 47  0  0  0  0            999 V2000
    0.4073    1.4990    0.0000 C   0  0  0  0  0  0  0  0  0  0  0  0
    0.4073    0.6740    0.0000 C   0  0  0  0  0  0  0  0  0  0  0  0
    1.1919    0.4191    0.0000 S   0  0  0  0  0  0  0  0  0  0  0  0
    1.6769    1.0865    0.0000 C   0  0  0  0  0  0  0  0  0  0  0  0
    1.1919    1.7540    0.0000 N   0  0  0  0  0  0  0  0  0  0  0  0
   -0.3072    0.2615    0.0000 C   0  0  0  0  0  0  0  0  0  0  0  0
   -1.0216    0.6740    0.0000 C   0  0  0  0  0  0  0  0  0  0  0  0
   -1.7361    0.2615    0.0000 C   0  0  0  0  0  0  0  0  0  0  0  0
   -1.7361   -0.5635    0.0000 C   0  0  0  0  0  0  0  0  0  0  0  0
   -1.0216   -0.9760    0.0000 C   0  0  0  0  0  0  0  0  0  0  0  0
   -0.3072   -0.5635    0.0000 C   0  0  0  0  0  0  0  0  0  0  0  0
    0.4073   -0.9760    0.0000 S   0  0  0  0  0  0  0  0  0  0  0  0
    1.1218   -1.3885    0.0000 N   0  0  0  0  0  0  0  0  0  0  0  0
    0.8198   -0.2615    0.0000 O   0  0  0  0  0  0  0  0  0  0  0  0
   -0.0052   -1.6905    0.0000 O   0  0  0  0  0  0  0  0  0  0  0  0
    1.8363   -0.9760    0.0000 C   0  0  0  0  0  0  0  0  0  0  0  0
    2.5507   -1.3885    0.0000 C   0  0  0  0  0  0  0  0  0  0  0  0
    1.8363   -0.1510    0.0000 C   0  0  0  0  0  0  0  0  0  0  0  0
    2.5507   -0.5635    0.0000 C   0  0  0  0  0  0  0  0  0  0  0  0
   -2.4506   -0.9760    0.0000 C   0  0  0  0  0  0  0  0  0  0  0  0
   -3.1650   -0.5635    0.0000 N   0  0  0  0  0  0  0  0  0  0  0  0
   -3.8795   -0.9760    0.0000 C   0  0  0  0  0  0  0  0  0  0  0  0
    2.5019    1.0865    0.0000 C   0  0  0  0  0  0  0  0  0  0  0  0
    2.9144    0.3720    0.0000 C   0  0  0  0  0  0  0  0  0  0  0  0
    3.7394    0.3720    0.0000 C   0  0  0  0  0  0  0  0  0  0  0  0
    4.1519    1.0865    0.0000 C   0  0  0  0  0  0  0  0  0  0  0  0
    3.7394    1.8010    0.0000 C   0  0  0  0  0  0  0  0  0  0  0  0
    2.9144    1.8010    0.0000 C   0  0  0  0  0  0  0  0  0  0  0  0
    4.9769    1.0865    0.0000 N   0  0  0  0  0  0  0  0  0  0  0  0
    5.3894    0.3720    0.0000 C   0  0  0  0  0  0  0  0  0  0  0  0
    6.2144    0.3720    0.0000 O   0  0  0  0  0  0  0  0  0  0  0  0
    4.9769   -0.3424    0.0000 O   0  0  0  0  0  0  0  0  0  0  0  0
    6.6269    1.0865    0.0000 C   0  0  0  0  0  0  0  0  0  0  0  0
    7.4519    1.0865    0.0000 C   0  0  0  0  0  0  0  0  0  0  0  0
    6.2144    1.8010    0.0000 C   0  0  0  0  0  0  0  0  0  0  0  0
   -3.8795   -1.8010    0.0000 O   0  0  0  0  0  0  0  0  0  0  0  0
   -4.5940   -0.5635    0.0000 O   0  0  0  0  0  0  0  0  0  0  0  0
   -5.3084   -0.9760    0.0000 C   0  0  0  0  0  0  0  0  0  0  0  0
   -6.0229   -0.5635    0.0000 C   0  0  0  0  0  0  0  0  0  0  0  0
   -6.0229    0.2615    0.0000 C   0  0  0  0  0  0  0  0  0  0  0  0
   -6.7374    0.6740    0.0000 C   0  0  0  0  0  0  0  0  0  0  0  0
   -7.4519    0.2615    0.0000 C   0  0  0  0  0  0  0  0  0  0  0  0
   -7.4519   -0.5635    0.0000 C   0  0  0  0  0  0  0  0  0  0  0  0
   -6.7374   -0.9760    0.0000 C   0  0  0  0  0  0  0  0  0  0  0  0
  1  2  4  0  0  0  0
  2  3  4  0  0  0  0
  3  4  4  0  0  0  0
  4  5  4  0  0  0  0
  5  1  4  0  0  0  0
  2  6  1  0  0  0  0
  6  7  4  0  0  0  0
  7  8  4  0  0  0  0
  8  9  4  0  0  0  0
  9 10  4  0  0  0  0
 10 11  4  0  0  0  0
 11  6  4  0  0  0  0
 11 12  1  0  0  0  0
 12 13  1  0  0  0  0
 12 14  2  0  0  0  0
 12 15  2  0  0  0  0
 13 16  1  0  0  0  0
 16 17  1  0  0  0  0
 16 18  1  0  0  0  0
 16 19  1  0  0  0  0
  9 20  1  0  0  0  0
 20 21  1  0  0  0  0
 21 22  1  0  0  0  0
  4 23  1  0  0  0  0
 23 24  4  0  0  0  0
 24 25  4  0  0  0  0
 25 26  4  0  0  0  0
 26 27  4  0  0  0  0
 27 28  4  0  0  0  0
 28 23  4  0  0  0  0
 26 29  1  0  0  0  0
 29 30  1  0  0  0  0
 30 31  1  0  0  0  0
 30 32  2  0  0  0  0
 31 33  1  0  0  0  0
 33 34  1  0  0  0  0
 33 35  1  0  0  0  0
 22 36  2  0  0  0  0
 22 37  1  0  0  0  0
 37 38  1  0  0  0  0
 38 39  1  0  0  0  0
 39 40  4  0  0  0  0
 40 41  4  0  0  0  0
 41 42  4  0  0  0  0
 42 43  4  0  0  0  0
 43 44  4  0  0  0  0
 44 39  4  0  0  0  0
M  END
> <From>
www.bindingDB.org

> <BindingDB Reactant_set_id>
1155361

> <Ligand InChI>
InChI=1S/C32H36N4O6S2/c1-21(2)42-31(38)35-25-14-12-24(13-15-25)29-33-19-27(43-29)26-16-11-23(17-28(26)44(39,40)36-32(3,4)5)18-34-30(37)41-20-22-9-7-6-8-10-22/h6-17,19,21,36H,18,20H2,1-5H3,(H,34,37)(H,35,38)

> <Ligand InChI Key>
KEVPPABCRGBRNR-UHFFFAOYSA-N

> <BindingDB MonomerID>
546511

> <BindingDB Ligand Name>
US11291655, No Q2

> <Target Name>
DNA repair protein RAD51 homolog 1

> <Target Source Organism According to Curator or DataSource>
Homo sapiens

> <Ki (nM)>


> <IC50 (nM)>


> <Kd (nM)>


> <EC50 (nM)>
>10000

> <kon (M-1-s-1)>


> <koff (s-1)>


> <pH>


> <Temp C>


> <Curation/DataSource>
US Patent

> <Article DOI>


> <BindingDB Entry DOI>
10.7270/Q2NG4TV0

> <PMID>


> <PubChem AID>
aid1806421

> <Patent Number>
US11291655

> <Authors>
Castro, AC; McComas, CC; Vacca, J

> <Date of publication>
4/5/2022

> <Date in BindingDB>
7/21/2022

> <Institution>
Cyteir Therapeutics, Inc.

> <Link to Ligand in BindingDB>
http://www.bindingdb.org/bind/chemsearch/marvin/MolStructure.jsp?monomerid=546511

> <Link to Ligand-Target Pair in BindingDB>
http://www.bindingdb.org/jsp/dbsearch/PrimarySearch_ki.jsp?energyterm=kJ/mole&tag=pol&polymerid=4676&target=DNA+repair+protein+RAD51+homolog+1&column=ki&startPg=0&Increment=50&submit=Search

> <Link to Ligand-Target Pair in BindingDB>
http://www.bindingdb.org/jsp/dbsearch/PrimarySearch_ki.jsp?energyterm=kJ/mole&tag=r21&monomerid=546511&enzyme=DNA+repair+protein+RAD51+homolog+1&column=ki&startPg=0&Increment=50&submit=Search

> <Ligand HET ID in PDB>


> <PDB ID(s) for Ligand-Target Complex>


> <PubChem CID of Ligand>
137408671

> <PubChem SID of Ligand>
469681207

> <ChEBI ID of Ligand>


> <ChEMBL ID of Ligand>


> <DrugBank ID of Ligand>


> <IUPHAR_GRAC ID of Ligand>


> <KEGG ID of Ligand>


> <ZINC ID of Ligand>


> <Number of Protein Chains in Target (bigger than 1 implies a multichain complex)>
1

> <BindingDB Target Chain Sequence>
MAMQMQLEANADTSVEEESFGPQPISRLEQCGINANDVKKLEEAGFHTVEAVAYAPKKELINIKGISEAKADKILAEAAKLVPMGFTTATEFHQRRSEIIQITTGSKELDKLLQGGIETGSITEMFGEFRTGKTQICHTLAVTCQLPIDRGGGEGKAMYIDTEGTFRPERLLAVAERYGLSGSDVLDNVAYARAFNTDHQTQLLYQASAMMVESRYALLIVDSATALYRTDYSGRGELSARQMHLARFLRMLLRLADEFGVAVVITNQVVAQVDGAAMFAADPKKPIGGNIIAHASTTRLYLRKGRGETRICKIYDSPCLPEAEAMFAINADGVGDAKD

> <PDB ID(s) of Target Chain>
1N0W,5JZC,5NP7,5NWL,8BQ2,8BR2,8BSC

> <UniProt (SwissProt) Recommended Name of Target Chain>
DNA repair protein RAD51 homolog 1

> <UniProt (SwissProt) Entry Name of Target Chain>
RAD51_HUMAN

> <UniProt (SwissProt) Primary ID of Target Chain>
Q06609

> <UniProt (SwissProt) Secondary ID(s) of Target Chain>
B0FXP0 B2R8T6 Q6FHX9 Q6ZNA8 Q9BV60

> <UniProt (SwissProt) Alternative ID(s) of Target Chain>


> <UniProt (TrEMBL) Submitted Name of Target Chain>


> <UniProt (TrEMBL) Entry Name of Target Chain>


> <UniProt (TrEMBL) Primary ID of Target Chain>


> <UniProt (TrEMBL) Secondary ID(s) of Target Chain>


> <UniProt (TrEMBL) Alternative ID(s) of Target Chain>


$$$$
00375001.cdx
  Mrv0541 07212217012D          

 44 47  0  0  0  0            999 V2000
    0.0501    1.7053    0.0000 C   0  0  0  0  0  0  0  0  0  0  0  0
    0.0501    0.8803    0.0000 C   0  0  0  0  0  0  0  0  0  0  0  0
    0.8347    0.6253    0.0000 S   0  0  0  0  0  0  0  0  0  0  0  0
    1.3196    1.2928    0.0000 C   0  0  0  0  0  0  0  0  0  0  0  0
    0.8347    1.9602    0.0000 N   0  0  0  0  0  0  0  0  0  0  0  0
   -0.6644    0.4678    0.0000 C   0  0  0  0  0  0  0  0  0  0  0  0
   -1.3789    0.8803    0.0000 C   0  0  0  0  0  0  0  0  0  0  0  0
   -2.0933    0.4678    0.0000 C   0  0  0  0  0  0  0  0  0  0  0  0
   -2.0933   -0.3572    0.0000 C   0  0  0  0  0  0  0  0  0  0  0  0
   -1.3789   -0.7697    0.0000 C   0  0  0  0  0  0  0  0  0  0  0  0
   -0.6644   -0.3572    0.0000 C   0  0  0  0  0  0  0  0  0  0  0  0
    0.0501   -0.7697    0.0000 S   0  0  0  0  0  0  0  0  0  0  0  0
    0.7646   -1.1822    0.0000 N   0  0  0  0  0  0  0  0  0  0  0  0
    0.4626   -0.0553    0.0000 O   0  0  0  0  0  0  0  0  0  0  0  0
   -0.3624   -1.4842    0.0000 O   0  0  0  0  0  0  0  0  0  0  0  0
    1.4790   -0.7697    0.0000 C   0  0  0  0  0  0  0  0  0  0  0  0
    2.1935   -1.1822    0.0000 C   0  0  0  0  0  0  0  0  0  0  0  0
    1.4790    0.0553    0.0000 C   0  0  0  0  0  0  0  0  0  0  0  0
    2.1935   -0.3572    0.0000 C   0  0  0  0  0  0  0  0  0  0  0  0
   -2.8078   -0.7697    0.0000 N   0  0  0  0  0  0  0  0  0  0  0  0
   -3.5223   -0.3572    0.0000 C   0  0  0  0  0  0  0  0  0  0  0  0
   -4.2367   -0.7697    0.0000 N   0  0  0  0  0  0  0  0  0  0  0  0
   -4.9512   -0.3572    0.0000 C   0  0  0  0  0  0  0  0  0  0  0  0
    2.1446    1.2928    0.0000 C   0  0  0  0  0  0  0  0  0  0  0  0
    2.5571    0.5783    0.0000 C   0  0  0  0  0  0  0  0  0  0  0  0
    3.3821    0.5783    0.0000 C   0  0  0  0  0  0  0  0  0  0  0  0
    3.7946    1.2928    0.0000 C   0  0  0  0  0  0  0  0  0  0  0  0
    3.3821    2.0072    0.0000 C   0  0  0  0  0  0  0  0  0  0  0  0
    2.5571    2.0072    0.0000 C   0  0  0  0  0  0  0  0  0  0  0  0
    4.6196    1.2928    0.0000 N   0  0  0  0  0  0  0  0  0  0  0  0
    5.0321    0.5783    0.0000 C   0  0  0  0  0  0  0  0  0  0  0  0
    5.8571    0.5783    0.0000 N   0  0  0  0  0  0  0  0  0  0  0  0
    4.6196   -0.1362    0.0000 S   0  0  0  0  0  0  0  0  0  0  0  0
    6.2696    1.2928    0.0000 C   0  0  0  0  0  0  0  0  0  0  0  0
    7.0946    1.2928    0.0000 C   0  0  0  0  0  0  0  0  0  0  0  0
    5.8571    2.0072    0.0000 C   0  0  0  0  0  0  0  0  0  0  0  0
   -5.6657   -0.7697    0.0000 C   0  0  0  0  0  0  0  0  0  0  0  0
   -2.8078   -1.5947    0.0000 C   0  0  0  0  0  0  0  0  0  0  0  0
   -3.5223    0.4678    0.0000 O   0  0  0  0  0  0  0  0  0  0  0  0
   -6.3802   -0.3572    0.0000 C   0  0  0  0  0  0  0  0  0  0  0  0
   -7.0946   -0.7697    0.0000 C   0  0  0  0  0  0  0  0  0  0  0  0
   -7.0946   -1.5947    0.0000 C   0  0  0  0  0  0  0  0  0  0  0  0
   -6.3802   -2.0072    0.0000 C   0  0  0  0  0  0  0  0  0  0  0  0
   -5.6657   -1.5947    0.0000 C   0  0  0  0  0  0  0  0  0  0  0  0
  1  2  4  0  0  0  0
  2  3  4  0  0  0  0
  3  4  4  0  0  0  0
  4  5  4  0  0  0  0
  5  1  4  0  0  0  0
  2  6  1  0  0  0  0
  6  7  4  0  0  0  0
  7  8  4  0  0  0  0
  8  9  4  0  0  0  0
  9 10  4  0  0  0  0
 10 11  4  0  0  0  0
 11  6  4  0  0  0  0
 11 12  1  0  0  0  0
 12 13  1  0  0  0  0
 12 14  2  0  0  0  0
 12 15  2  0  0  0  0
 13 16  1  0  0  0  0
 16 17  1  0  0  0  0
 16 18  1  0  0  0  0
 16 19  1  0  0  0  0
  9 20  1  0  0  0  0
 20 21  1  0  0  0  0
 21 22  1  0  0  0  0
 22 23  1  0  0  0  0
 23 37  1  0  0  0  0
  4 24  1  0  0  0  0
 24 25  4  0  0  0  0
 25 26  4  0  0  0  0
 26 27  4  0  0  0  0
 27 28  4  0  0  0  0
 28 29  4  0  0  0  0
 29 24  4  0  0  0  0
 27 30  1  0  0  0  0
 30 31  1  0  0  0  0
 31 32  1  0  0  0  0
 31 33  2  0  0  0  0
 32 34  1  0  0  0  0
 34 35  1  0  0  0  0
 34 36  1  0  0  0  0
 20 38  1  0  0  0  0
 21 39  2  0  0  0  0
 37 40  4  0  0  0  0
 40 41  4  0  0  0  0
 41 42  4  0  0  0  0
 42 43  4  0  0  0  0
 43 44  4  0  0  0  0
 44 37  4  0  0  0  0
M  END
> <From>
www.bindingDB.org

> <BindingDB Reactant_set_id>
1155362

> <Ligand InChI>
InChI=1S/C32H38N6O3S3/c1-21(2)35-30(42)36-24-14-12-23(13-15-24)29-33-20-27(43-29)26-17-16-25(18-28(26)44(40,41)37-32(3,4)5)38(6)31(39)34-19-22-10-8-7-9-11-22/h7-18,20-21,37H,19H2,1-6H3,(H,34,39)(H2,35,36,42)

> <Ligand InChI Key>
CXXVNIVIGKQRMH-UHFFFAOYSA-N

> <BindingDB MonomerID>
546512

> <BindingDB Ligand Name>
US11291655, No Q3

> <Target Name>
DNA repair protein RAD51 homolog 1

> <Target Source Organism According to Curator or DataSource>
Homo sapiens

> <Ki (nM)>


> <IC50 (nM)>


> <Kd (nM)>


> <EC50 (nM)>
<1000

> <kon (M-1-s-1)>


> <koff (s-1)>


> <pH>


> <Temp C>


> <Curation/DataSource>
US Patent

> <Article DOI>


> <BindingDB Entry DOI>
10.7270/Q2NG4TV0

> <PMID>


> <PubChem AID>
aid1806421

> <Patent Number>
US11291655

> <Authors>
Castro, AC; McComas, CC; Vacca, J

> <Date of publication>
4/5/2022

> <Date in BindingDB>
7/21/2022

> <Institution>
Cyteir Therapeutics, Inc.

> <Link to Ligand in BindingDB>
http://www.bindingdb.org/bind/chemsearch/marvin/MolStructure.jsp?monomerid=546512

> <Link to Ligand-Target Pair in BindingDB>
http://www.bindingdb.org/jsp/dbsearch/PrimarySearch_ki.jsp?energyterm=kJ/mole&tag=pol&polymerid=4676&target=DNA+repair+protein+RAD51+homolog+1&column=ki&startPg=0&Increment=50&submit=Search

> <Link to Ligand-Target Pair in BindingDB>
http://www.bindingdb.org/jsp/dbsearch/PrimarySearch_ki.jsp?energyterm=kJ/mole&tag=r21&monomerid=546512&enzyme=DNA+repair+protein+RAD51+homolog+1&column=ki&startPg=0&Increment=50&submit=Search

> <Ligand HET ID in PDB>


> <PDB ID(s) for Ligand-Target Complex>


> <PubChem CID of Ligand>
137411963

> <PubChem SID of Ligand>
469681208

> <ChEBI ID of Ligand>


> <ChEMBL ID of Ligand>


> <DrugBank ID of Ligand>


> <IUPHAR_GRAC ID of Ligand>


> <KEGG ID of Ligand>


> <ZINC ID of Ligand>


> <Number of Protein Chains in Target (bigger than 1 implies a multichain complex)>
1

> <BindingDB Target Chain Sequence>
MAMQMQLEANADTSVEEESFGPQPISRLEQCGINANDVKKLEEAGFHTVEAVAYAPKKELINIKGISEAKADKILAEAAKLVPMGFTTATEFHQRRSEIIQITTGSKELDKLLQGGIETGSITEMFGEFRTGKTQICHTLAVTCQLPIDRGGGEGKAMYIDTEGTFRPERLLAVAERYGLSGSDVLDNVAYARAFNTDHQTQLLYQASAMMVESRYALLIVDSATALYRTDYSGRGELSARQMHLARFLRMLLRLADEFGVAVVITNQVVAQVDGAAMFAADPKKPIGGNIIAHASTTRLYLRKGRGETRICKIYDSPCLPEAEAMFAINADGVGDAKD

> <PDB ID(s) of Target Chain>
1N0W,5JZC,5NP7,5NWL,8BQ2,8BR2,8BSC

> <UniProt (SwissProt) Recommended Name of Target Chain>
DNA repair protein RAD51 homolog 1

> <UniProt (SwissProt) Entry Name of Target Chain>
RAD51_HUMAN

> <UniProt (SwissProt) Primary ID of Target Chain>
Q06609

> <UniProt (SwissProt) Secondary ID(s) of Target Chain>
B0FXP0 B2R8T6 Q6FHX9 Q6ZNA8 Q9BV60

> <UniProt (SwissProt) Alternative ID(s) of Target Chain>


> <UniProt (TrEMBL) Submitted Name of Target Chain>


> <UniProt (TrEMBL) Entry Name of Target Chain>


> <UniProt (TrEMBL) Primary ID of Target Chain>


> <UniProt (TrEMBL) Secondary ID(s) of Target Chain>


> <UniProt (TrEMBL) Alternative ID(s) of Target Chain>


$$$$
00380001.cdx
  Mrv0541 07212217012D          

 45 48  0  0  0  0            999 V2000
    0.0501    1.7053    0.0000 C   0  0  0  0  0  0  0  0  0  0  0  0
    0.0501    0.8803    0.0000 C   0  0  0  0  0  0  0  0  0  0  0  0
    0.8347    0.6253    0.0000 S   0  0  0  0  0  0  0  0  0  0  0  0
    1.3196    1.2928    0.0000 C   0  0  0  0  0  0  0  0  0  0  0  0
    0.8347    1.9602    0.0000 N   0  0  0  0  0  0  0  0  0  0  0  0
   -0.6644    0.4678    0.0000 C   0  0  0  0  0  0  0  0  0  0  0  0
   -1.3789    0.8803    0.0000 C   0  0  0  0  0  0  0  0  0  0  0  0
   -2.0933    0.4678    0.0000 C   0  0  0  0  0  0  0  0  0  0  0  0
   -2.0933   -0.3572    0.0000 C   0  0  0  0  0  0  0  0  0  0  0  0
   -1.3789   -0.7697    0.0000 C   0  0  0  0  0  0  0  0  0  0  0  0
   -0.6644   -0.3572    0.0000 C   0  0  0  0  0  0  0  0  0  0  0  0
    0.0501   -0.7697    0.0000 S   0  0  0  0  0  0  0  0  0  0  0  0
    0.7646   -1.1822    0.0000 N   0  0  0  0  0  0  0  0  0  0  0  0
    0.4626   -0.0553    0.0000 O   0  0  0  0  0  0  0  0  0  0  0  0
   -0.3624   -1.4842    0.0000 O   0  0  0  0  0  0  0  0  0  0  0  0
    1.4790   -0.7697    0.0000 C   0  0  0  0  0  0  0  0  0  0  0  0
    2.1935   -1.1822    0.0000 C   0  0  0  0  0  0  0  0  0  0  0  0
    1.4790    0.0553    0.0000 C   0  0  0  0  0  0  0  0  0  0  0  0
    2.1935   -0.3572    0.0000 C   0  0  0  0  0  0  0  0  0  0  0  0
   -2.8078   -0.7697    0.0000 N   0  0  0  0  0  0  0  0  0  0  0  0
   -3.5223   -0.3572    0.0000 C   0  0  0  0  0  0  0  0  0  0  0  0
   -4.2367   -0.7697    0.0000 N   0  0  0  0  0  0  0  0  0  0  0  0
   -4.9512   -0.3572    0.0000 C   0  0  0  0  0  0  0  0  0  0  0  0
    2.1446    1.2928    0.0000 C   0  0  0  0  0  0  0  0  0  0  0  0
    2.5571    0.5783    0.0000 C   0  0  0  0  0  0  0  0  0  0  0  0
    3.3821    0.5783    0.0000 C   0  0  0  0  0  0  0  0  0  0  0  0
    3.7946    1.2928    0.0000 C   0  0  0  0  0  0  0  0  0  0  0  0
    3.3821    2.0072    0.0000 C   0  0  0  0  0  0  0  0  0  0  0  0
    2.5571    2.0072    0.0000 C   0  0  0  0  0  0  0  0  0  0  0  0
    4.6196    1.2928    0.0000 N   0  0  0  0  0  0  0  0  0  0  0  0
    5.0321    0.5783    0.0000 C   0  0  0  0  0  0  0  0  0  0  0  0
    5.8571    0.5783    0.0000 N   0  0  0  0  0  0  0  0  0  0  0  0
    4.6196   -0.1362    0.0000 S   0  0  0  0  0  0  0  0  0  0  0  0
    6.2696    1.2928    0.0000 C   0  0  0  0  0  0  0  0  0  0  0  0
    7.0946    1.2928    0.0000 C   0  0  0  0  0  0  0  0  0  0  0  0
    5.8571    2.0072    0.0000 C   0  0  0  0  0  0  0  0  0  0  0  0
   -5.6657   -0.7697    0.0000 C   0  0  0  0  0  0  0  0  0  0  0  0
   -2.8078   -1.5947    0.0000 C   0  0  0  0  0  0  0  0  0  0  0  0
   -4.2367   -1.5947    0.0000 C   0  0  0  0  0  0  0  0  0  0  0  0
   -3.5223    0.4678    0.0000 O   0  0  0  0  0  0  0  0  0  0  0  0
   -6.3802   -0.3572    0.0000 C   0  0  0  0  0  0  0  0  0  0  0  0
   -7.0946   -0.7697    0.0000 C   0  0  0  0  0  0  0  0  0  0  0  0
   -7.0946   -1.5947    0.0000 C   0  0  0  0  0  0  0  0  0  0  0  0
   -6.3802   -2.0072    0.0000 C   0  0  0  0  0  0  0  0  0  0  0  0
   -5.6657   -1.5947    0.0000 C   0  0  0  0  0  0  0  0  0  0  0  0
  1  2  4  0  0  0  0
  2  3  4  0  0  0  0
  3  4  4  0  0  0  0
  4  5  4  0  0  0  0
  5  1  4  0  0  0  0
  2  6  1  0  0  0  0
  6  7  4  0  0  0  0
  7  8  4  0  0  0  0
  8  9  4  0  0  0  0
  9 10  4  0  0  0  0
 10 11  4  0  0  0  0
 11  6  4  0  0  0  0
 11 12  1  0  0  0  0
 12 13  1  0  0  0  0
 12 14  2  0  0  0  0
 12 15  2  0  0  0  0
 13 16  1  0  0  0  0
 16 17  1  0  0  0  0
 16 18  1  0  0  0  0
 16 19  1  0  0  0  0
  9 20  1  0  0  0  0
 20 21  1  0  0  0  0
 21 22  1  0  0  0  0
 22 23  1  0  0  0  0
 23 37  1  0  0  0  0
  4 24  1  0  0  0  0
 24 25  4  0  0  0  0
 25 26  4  0  0  0  0
 26 27  4  0  0  0  0
 27 28  4  0  0  0  0
 28 29  4  0  0  0  0
 29 24  4  0  0  0  0
 27 30  1  0  0  0  0
 30 31  1  0  0  0  0
 31 32  1  0  0  0  0
 31 33  2  0  0  0  0
 32 34  1  0  0  0  0
 34 35  1  0  0  0  0
 34 36  1  0  0  0  0
 20 38  1  0  0  0  0
 22 39  1  0  0  0  0
 21 40  2  0  0  0  0
 37 41  4  0  0  0  0
 41 42  4  0  0  0  0
 42 43  4  0  0  0  0
 43 44  4  0  0  0  0
 44 45  4  0  0  0  0
 45 37  4  0  0  0  0
M  END
> <From>
www.bindingDB.org

> <BindingDB Reactant_set_id>
1155363

> <Ligand InChI>
InChI=1S/C33H40N6O3S3/c1-22(2)35-31(43)36-25-15-13-24(14-16-25)30-34-20-28(44-30)27-18-17-26(19-29(27)45(41,42)37-33(3,4)5)39(7)32(40)38(6)21-23-11-9-8-10-12-23/h8-20,22,37H,21H2,1-7H3,(H2,35,36,43)

> <Ligand InChI Key>
SUNJGTRZWSRYJF-UHFFFAOYSA-N

> <BindingDB MonomerID>
546513

> <BindingDB Ligand Name>
US11291655, No Q4

> <Target Name>
DNA repair protein RAD51 homolog 1

> <Target Source Organism According to Curator or DataSource>
Homo sapiens

> <Ki (nM)>


> <IC50 (nM)>


> <Kd (nM)>


> <EC50 (nM)>
<1000

> <kon (M-1-s-1)>


> <koff (s-1)>


> <pH>


> <Temp C>


> <Curation/DataSource>
US Patent

> <Article DOI>


> <BindingDB Entry DOI>
10.7270/Q2NG4TV0

> <PMID>


> <PubChem AID>
aid1806421

> <Patent Number>
US11291655

> <Authors>
Castro, AC; McComas, CC; Vacca, J

> <Date of publication>
4/5/2022

> <Date in BindingDB>
7/21/2022

> <Institution>
Cyteir Therapeutics, Inc.

> <Link to Ligand in BindingDB>
http://www.bindingdb.org/bind/chemsearch/marvin/MolStructure.jsp?monomerid=546513

> <Link to Ligand-Target Pair in BindingDB>
http://www.bindingdb.org/jsp/dbsearch/PrimarySearch_ki.jsp?energyterm=kJ/mole&tag=pol&polymerid=4676&target=DNA+repair+protein+RAD51+homolog+1&column=ki&startPg=0&Increment=50&submit=Search

> <Link to Ligand-Target Pair in BindingDB>
http://www.bindingdb.org/jsp/dbsearch/PrimarySearch_ki.jsp?energyterm=kJ/mole&tag=r21&monomerid=546513&enzyme=DNA+repair+protein+RAD51+homolog+1&column=ki&startPg=0&Increment=50&submit=Search

> <Ligand HET ID in PDB>


> <PDB ID(s) for Ligand-Target Complex>


> <PubChem CID of Ligand>
137411875

> <PubChem SID of Ligand>
469681209

> <ChEBI ID of Ligand>


> <ChEMBL ID of Ligand>


> <DrugBank ID of Ligand>


> <IUPHAR_GRAC ID of Ligand>


> <KEGG ID of Ligand>


> <ZINC ID of Ligand>


> <Number of Protein Chains in Target (bigger than 1 implies a multichain complex)>
1

> <BindingDB Target Chain Sequence>
MAMQMQLEANADTSVEEESFGPQPISRLEQCGINANDVKKLEEAGFHTVEAVAYAPKKELINIKGISEAKADKILAEAAKLVPMGFTTATEFHQRRSEIIQITTGSKELDKLLQGGIETGSITEMFGEFRTGKTQICHTLAVTCQLPIDRGGGEGKAMYIDTEGTFRPERLLAVAERYGLSGSDVLDNVAYARAFNTDHQTQLLYQASAMMVESRYALLIVDSATALYRTDYSGRGELSARQMHLARFLRMLLRLADEFGVAVVITNQVVAQVDGAAMFAADPKKPIGGNIIAHASTTRLYLRKGRGETRICKIYDSPCLPEAEAMFAINADGVGDAKD

> <PDB ID(s) of Target Chain>
1N0W,5JZC,5NP7,5NWL,8BQ2,8BR2,8BSC

> <UniProt (SwissProt) Recommended Name of Target Chain>
DNA repair protein RAD51 homolog 1

> <UniProt (SwissProt) Entry Name of Target Chain>
RAD51_HUMAN

> <UniProt (SwissProt) Primary ID of Target Chain>
Q06609

> <UniProt (SwissProt) Secondary ID(s) of Target Chain>
B0FXP0 B2R8T6 Q6FHX9 Q6ZNA8 Q9BV60

> <UniProt (SwissProt) Alternative ID(s) of Target Chain>


> <UniProt (TrEMBL) Submitted Name of Target Chain>


> <UniProt (TrEMBL) Entry Name of Target Chain>


> <UniProt (TrEMBL) Primary ID of Target Chain>


> <UniProt (TrEMBL) Secondary ID(s) of Target Chain>


> <UniProt (TrEMBL) Alternative ID(s) of Target Chain>


$$$$
00381001.cdx
  Mrv0541 07212217012D          

 40 42  0  0  0  0            999 V2000
    0.5974    1.9018    0.0000 N   0  0  0  0  0  0  0  0  0  0  0  0
   -0.2276    1.9018    0.0000 C   0  0  0  0  0  0  0  0  0  0  0  0
   -0.4825    1.1172    0.0000 C   0  0  0  0  0  0  0  0  0  0  0  0
    0.1849    0.6323    0.0000 S   0  0  0  0  0  0  0  0  0  0  0  0
    0.8524    1.1172    0.0000 C   0  0  0  0  0  0  0  0  0  0  0  0
   -1.2794    0.9037    0.0000 C   0  0  0  0  0  0  0  0  0  0  0  0
   -1.8628    1.4870    0.0000 C   0  0  0  0  0  0  0  0  0  0  0  0
   -2.6597    1.2735    0.0000 C   0  0  0  0  0  0  0  0  0  0  0  0
   -2.8732    0.4766    0.0000 C   0  0  0  0  0  0  0  0  0  0  0  0
   -2.2898   -0.1068    0.0000 C   0  0  0  0  0  0  0  0  0  0  0  0
   -1.4929    0.1068    0.0000 C   0  0  0  0  0  0  0  0  0  0  0  0
   -0.9096   -0.4766    0.0000 S   0  0  0  0  0  0  0  0  0  0  0  0
   -1.1231   -1.2735    0.0000 N   0  0  0  0  0  0  0  0  0  0  0  0
   -0.1127   -0.6901    0.0000 O   0  0  0  0  0  0  0  0  0  0  0  0
   -0.3262    0.1068    0.0000 O   0  0  0  0  0  0  0  0  0  0  0  0
   -1.9200   -1.4870    0.0000 C   0  0  0  0  0  0  0  0  0  0  0  0
   -2.1335   -2.2839    0.0000 C   0  0  0  0  0  0  0  0  0  0  0  0
   -2.5033   -0.9037    0.0000 C   0  0  0  0  0  0  0  0  0  0  0  0
   -2.7169   -1.7005    0.0000 C   0  0  0  0  0  0  0  0  0  0  0  0
    1.6492    0.9037    0.0000 C   0  0  0  0  0  0  0  0  0  0  0  0
    1.8628    0.1068    0.0000 C   0  0  0  0  0  0  0  0  0  0  0  0
    2.6597   -0.1068    0.0000 C   0  0  0  0  0  0  0  0  0  0  0  0
    3.2430    0.4766    0.0000 C   0  0  0  0  0  0  0  0  0  0  0  0
    3.0295    1.2735    0.0000 C   0  0  0  0  0  0  0  0  0  0  0  0
    2.2326    1.4870    0.0000 C   0  0  0  0  0  0  0  0  0  0  0  0
    4.0399    0.2631    0.0000 N   0  0  0  0  0  0  0  0  0  0  0  0
    4.2534   -0.5338    0.0000 C   0  0  0  0  0  0  0  0  0  0  0  0
    5.0503   -0.7473    0.0000 O   0  0  0  0  0  0  0  0  0  0  0  0
    3.6701   -1.1172    0.0000 O   0  0  0  0  0  0  0  0  0  0  0  0
    5.6337   -0.1640    0.0000 C   0  0  0  0  0  0  0  0  0  0  0  0
   -3.6701    0.2631    0.0000 N   0  0  0  0  0  0  0  0  0  0  0  0
   -4.2534    0.8464    0.0000 C   0  0  0  0  0  0  0  0  0  0  0  0
   -5.0503    0.6329    0.0000 O   0  0  0  0  0  0  0  0  0  0  0  0
   -4.0399    1.6433    0.0000 O   0  0  0  0  0  0  0  0  0  0  0  0
   -5.6337    1.2163    0.0000 C   0  0  0  0  0  0  0  0  0  0  0  0
   -6.4306    1.0028    0.0000 C   0  0  0  0  0  0  0  0  0  0  0  0
   -5.4202    2.0132    0.0000 C   0  0  0  0  0  0  0  0  0  0  0  0
    6.4306   -0.3775    0.0000 C   0  0  0  0  0  0  0  0  0  0  0  0
    5.4202    0.6329    0.0000 C   0  0  0  0  0  0  0  0  0  0  0  0
    2.0191    2.2839    0.0000 C   0  0  0  0  0  0  0  0  0  0  0  0
  1  2  4  0  0  0  0
  2  3  4  0  0  0  0
  3  4  4  0  0  0  0
  4  5  4  0  0  0  0
  5  1  4  0  0  0  0
  3  6  1  0  0  0  0
  6  7  4  0  0  0  0
  7  8  4  0  0  0  0
  8  9  4  0  0  0  0
  9 10  4  0  0  0  0
 10 11  4  0  0  0  0
 11  6  4  0  0  0  0
  9 31  1  0  0  0  0
 11 12  1  0  0  0  0
 12 13  1  0  0  0  0
 12 14  2  0  0  0  0
 15 12  2  0  0  0  0
 13 16  1  0  0  0  0
 16 17  1  0  0  0  0
 16 18  1  0  0  0  0
 16 19  1  0  0  0  0
  5 20  1  0  0  0  0
 20 21  4  0  0  0  0
 21 22  4  0  0  0  0
 22 23  4  0  0  0  0
 23 24  4  0  0  0  0
 24 25  4  0  0  0  0
 25 20  4  0  0  0  0
 23 26  1  0  0  0  0
 26 27  1  0  0  0  0
 27 28  1  0  0  0  0
 27 29  2  0  0  0  0
 28 30  1  0  0  0  0
 31 32  1  0  0  0  0
 32 33  1  0  0  0  0
 32 34  2  0  0  0  0
 33 35  1  0  0  0  0
 35 36  1  0  0  0  0
 35 37  1  0  0  0  0
 30 38  1  0  0  0  0
 30 39  1  0  0  0  0
 25 40  1  0  0  0  0
M  END
> <From>
www.bindingDB.org

> <BindingDB Reactant_set_id>
1155364

> <Ligand InChI>
InChI=1S/C28H36N4O6S2/c1-16(2)37-26(33)30-19-9-11-21(18(5)13-19)25-29-15-23(39-25)22-12-10-20(31-27(34)38-17(3)4)14-24(22)40(35,36)32-28(6,7)8/h9-17,32H,1-8H3,(H,30,33)(H,31,34)

> <Ligand InChI Key>
QZFBQDCGOUIYTL-UHFFFAOYSA-N

> <BindingDB MonomerID>
546514

> <BindingDB Ligand Name>
US11291655, No R1

> <Target Name>
DNA repair protein RAD51 homolog 1

> <Target Source Organism According to Curator or DataSource>
Homo sapiens

> <Ki (nM)>


> <IC50 (nM)>


> <Kd (nM)>


> <EC50 (nM)>
<1000

> <kon (M-1-s-1)>


> <koff (s-1)>


> <pH>


> <Temp C>


> <Curation/DataSource>
US Patent

> <Article DOI>


> <BindingDB Entry DOI>
10.7270/Q2NG4TV0

> <PMID>


> <PubChem AID>
aid1806421

> <Patent Number>
US11291655

> <Authors>
Castro, AC; McComas, CC; Vacca, J

> <Date of publication>
4/5/2022

> <Date in BindingDB>
7/21/2022

> <Institution>
Cyteir Therapeutics, Inc.

> <Link to Ligand in BindingDB>
http://www.bindingdb.org/bind/chemsearch/marvin/MolStructure.jsp?monomerid=546514

> <Link to Ligand-Target Pair in BindingDB>
http://www.bindingdb.org/jsp/dbsearch/PrimarySearch_ki.jsp?energyterm=kJ/mole&tag=pol&polymerid=4676&target=DNA+repair+protein+RAD51+homolog+1&column=ki&startPg=0&Increment=50&submit=Search

> <Link to Ligand-Target Pair in BindingDB>
http://www.bindingdb.org/jsp/dbsearch/PrimarySearch_ki.jsp?energyterm=kJ/mole&tag=r21&monomerid=546514&enzyme=DNA+repair+protein+RAD51+homolog+1&column=ki&startPg=0&Increment=50&submit=Search

> <Ligand HET ID in PDB>


> <PDB ID(s) for Ligand-Target Complex>


> <PubChem CID of Ligand>
137412021

> <PubChem SID of Ligand>
469681210

> <ChEBI ID of Ligand>


> <ChEMBL ID of Ligand>


> <DrugBank ID of Ligand>


> <IUPHAR_GRAC ID of Ligand>


> <KEGG ID of Ligand>


> <ZINC ID of Ligand>


> <Number of Protein Chains in Target (bigger than 1 implies a multichain complex)>
1

> <BindingDB Target Chain Sequence>
MAMQMQLEANADTSVEEESFGPQPISRLEQCGINANDVKKLEEAGFHTVEAVAYAPKKELINIKGISEAKADKILAEAAKLVPMGFTTATEFHQRRSEIIQITTGSKELDKLLQGGIETGSITEMFGEFRTGKTQICHTLAVTCQLPIDRGGGEGKAMYIDTEGTFRPERLLAVAERYGLSGSDVLDNVAYARAFNTDHQTQLLYQASAMMVESRYALLIVDSATALYRTDYSGRGELSARQMHLARFLRMLLRLADEFGVAVVITNQVVAQVDGAAMFAADPKKPIGGNIIAHASTTRLYLRKGRGETRICKIYDSPCLPEAEAMFAINADGVGDAKD

> <PDB ID(s) of Target Chain>
1N0W,5JZC,5NP7,5NWL,8BQ2,8BR2,8BSC

> <UniProt (SwissProt) Recommended Name of Target Chain>
DNA repair protein RAD51 homolog 1

> <UniProt (SwissProt) Entry Name of Target Chain>
RAD51_HUMAN

> <UniProt (SwissProt) Primary ID of Target Chain>
Q06609

> <UniProt (SwissProt) Secondary ID(s) of Target Chain>
B0FXP0 B2R8T6 Q6FHX9 Q6ZNA8 Q9BV60

> <UniProt (SwissProt) Alternative ID(s) of Target Chain>


> <UniProt (TrEMBL) Submitted Name of Target Chain>


> <UniProt (TrEMBL) Entry Name of Target Chain>


> <UniProt (TrEMBL) Primary ID of Target Chain>


> <UniProt (TrEMBL) Secondary ID(s) of Target Chain>


> <UniProt (TrEMBL) Alternative ID(s) of Target Chain>


$$$$
00382001.cdx
  Mrv0541 07212217012D          

 41 43  0  0  0  0            999 V2000
    0.5974    1.7169    0.0000 N   0  0  0  0  0  0  0  0  0  0  0  0
   -0.2276    1.7169    0.0000 C   0  0  0  0  0  0  0  0  0  0  0  0
   -0.4825    0.9323    0.0000 C   0  0  0  0  0  0  0  0  0  0  0  0
    0.1849    0.4473    0.0000 S   0  0  0  0  0  0  0  0  0  0  0  0
    0.8524    0.9323    0.0000 C   0  0  0  0  0  0  0  0  0  0  0  0
   -1.2794    0.7187    0.0000 C   0  0  0  0  0  0  0  0  0  0  0  0
   -1.8628    1.3021    0.0000 C   0  0  0  0  0  0  0  0  0  0  0  0
   -2.6597    1.0886    0.0000 C   0  0  0  0  0  0  0  0  0  0  0  0
   -2.8732    0.2917    0.0000 C   0  0  0  0  0  0  0  0  0  0  0  0
   -2.2898   -0.2917    0.0000 C   0  0  0  0  0  0  0  0  0  0  0  0
   -1.4929   -0.0782    0.0000 C   0  0  0  0  0  0  0  0  0  0  0  0
   -0.9096   -0.6615    0.0000 S   0  0  0  0  0  0  0  0  0  0  0  0
   -1.1231   -1.4584    0.0000 N   0  0  0  0  0  0  0  0  0  0  0  0
   -0.1127   -0.8750    0.0000 O   0  0  0  0  0  0  0  0  0  0  0  0
   -0.3262   -0.0782    0.0000 O   0  0  0  0  0  0  0  0  0  0  0  0
   -1.9200   -1.6719    0.0000 C   0  0  0  0  0  0  0  0  0  0  0  0
   -2.1335   -2.4688    0.0000 C   0  0  0  0  0  0  0  0  0  0  0  0
   -2.5033   -1.0886    0.0000 C   0  0  0  0  0  0  0  0  0  0  0  0
   -2.7169   -1.8855    0.0000 C   0  0  0  0  0  0  0  0  0  0  0  0
    1.6492    0.7187    0.0000 C   0  0  0  0  0  0  0  0  0  0  0  0
    1.8628   -0.0782    0.0000 C   0  0  0  0  0  0  0  0  0  0  0  0
    2.6597   -0.2917    0.0000 C   0  0  0  0  0  0  0  0  0  0  0  0
    3.2430    0.2917    0.0000 C   0  0  0  0  0  0  0  0  0  0  0  0
    3.0295    1.0886    0.0000 C   0  0  0  0  0  0  0  0  0  0  0  0
    2.2326    1.3021    0.0000 C   0  0  0  0  0  0  0  0  0  0  0  0
    4.0399    0.0782    0.0000 N   0  0  0  0  0  0  0  0  0  0  0  0
    4.2534   -0.7187    0.0000 C   0  0  0  0  0  0  0  0  0  0  0  0
    5.0503   -0.9323    0.0000 O   0  0  0  0  0  0  0  0  0  0  0  0
    3.6701   -1.3021    0.0000 O   0  0  0  0  0  0  0  0  0  0  0  0
    5.6337   -0.3489    0.0000 C   0  0  0  0  0  0  0  0  0  0  0  0
   -3.6701    0.0782    0.0000 N   0  0  0  0  0  0  0  0  0  0  0  0
   -4.2534    0.6615    0.0000 C   0  0  0  0  0  0  0  0  0  0  0  0
   -5.0503    0.4480    0.0000 O   0  0  0  0  0  0  0  0  0  0  0  0
   -4.0399    1.4584    0.0000 O   0  0  0  0  0  0  0  0  0  0  0  0
   -5.6337    1.0314    0.0000 C   0  0  0  0  0  0  0  0  0  0  0  0
   -6.4306    0.8178    0.0000 C   0  0  0  0  0  0  0  0  0  0  0  0
   -5.4202    1.8282    0.0000 C   0  0  0  0  0  0  0  0  0  0  0  0
    6.4306   -0.5624    0.0000 C   0  0  0  0  0  0  0  0  0  0  0  0
    5.4202    0.4480    0.0000 C   0  0  0  0  0  0  0  0  0  0  0  0
    3.6129    1.6719    0.0000 O   0  0  0  0  0  0  0  0  0  0  0  0
    3.3993    2.4688    0.0000 C   0  0  0  0  0  0  0  0  0  0  0  0
  1  2  4  0  0  0  0
  2  3  4  0  0  0  0
  3  4  4  0  0  0  0
  4  5  4  0  0  0  0
  5  1  4  0  0  0  0
  3  6  1  0  0  0  0
  6  7  4  0  0  0  0
  7  8  4  0  0  0  0
  8  9  4  0  0  0  0
  9 10  4  0  0  0  0
 10 11  4  0  0  0  0
 11  6  4  0  0  0  0
  9 31  1  0  0  0  0
 11 12  1  0  0  0  0
 12 13  1  0  0  0  0
 12 14  2  0  0  0  0
 15 12  2  0  0  0  0
 13 16  1  0  0  0  0
 16 17  1  0  0  0  0
 16 18  1  0  0  0  0
 16 19  1  0  0  0  0
  5 20  1  0  0  0  0
 20 21  4  0  0  0  0
 21 22  4  0  0  0  0
 22 23  4  0  0  0  0
 23 24  4  0  0  0  0
 24 25  4  0  0  0  0
 25 20  4  0  0  0  0
 23 26  1  0  0  0  0
 26 27  1  0  0  0  0
 27 28  1  0  0  0  0
 27 29  2  0  0  0  0
 28 30  1  0  0  0  0
 31 32  1  0  0  0  0
 32 33  1  0  0  0  0
 32 34  2  0  0  0  0
 33 35  1  0  0  0  0
 35 36  1  0  0  0  0
 35 37  1  0  0  0  0
 30 38  1  0  0  0  0
 30 39  1  0  0  0  0
 24 40  1  0  0  0  0
 40 41  1  0  0  0  0
M  END
> <From>
www.bindingDB.org

> <BindingDB Reactant_set_id>
1155365

> <Ligand InChI>
InChI=1S/C28H36N4O7S2/c1-16(2)38-26(33)30-19-10-11-20(24(14-19)41(35,36)32-28(5,6)7)23-15-29-25(40-23)18-9-12-21(22(13-18)37-8)31-27(34)39-17(3)4/h9-17,32H,1-8H3,(H,30,33)(H,31,34)

> <Ligand InChI Key>
BDLPXJXTHWZWHJ-UHFFFAOYSA-N

> <BindingDB MonomerID>
546515

> <BindingDB Ligand Name>
US11291655, No R3

> <Target Name>
DNA repair protein RAD51 homolog 1

> <Target Source Organism According to Curator or DataSource>
Homo sapiens

> <Ki (nM)>


> <IC50 (nM)>


> <Kd (nM)>


> <EC50 (nM)>
<5000

> <kon (M-1-s-1)>


> <koff (s-1)>


> <pH>


> <Temp C>


> <Curation/DataSource>
US Patent

> <Article DOI>


> <BindingDB Entry DOI>
10.7270/Q2NG4TV0

> <PMID>


> <PubChem AID>
aid1806421

> <Patent Number>
US11291655

> <Authors>
Castro, AC; McComas, CC; Vacca, J

> <Date of publication>
4/5/2022

> <Date in BindingDB>
7/21/2022

> <Institution>
Cyteir Therapeutics, Inc.

> <Link to Ligand in BindingDB>
http://www.bindingdb.org/bind/chemsearch/marvin/MolStructure.jsp?monomerid=546515

> <Link to Ligand-Target Pair in BindingDB>
http://www.bindingdb.org/jsp/dbsearch/PrimarySearch_ki.jsp?energyterm=kJ/mole&tag=pol&polymerid=4676&target=DNA+repair+protein+RAD51+homolog+1&column=ki&startPg=0&Increment=50&submit=Search

> <Link to Ligand-Target Pair in BindingDB>
http://www.bindingdb.org/jsp/dbsearch/PrimarySearch_ki.jsp?energyterm=kJ/mole&tag=r21&monomerid=546515&enzyme=DNA+repair+protein+RAD51+homolog+1&column=ki&startPg=0&Increment=50&submit=Search

> <Ligand HET ID in PDB>


> <PDB ID(s) for Ligand-Target Complex>


> <PubChem CID of Ligand>
137412017

> <PubChem SID of Ligand>
469681211

> <ChEBI ID of Ligand>


> <ChEMBL ID of Ligand>


> <DrugBank ID of Ligand>


> <IUPHAR_GRAC ID of Ligand>


> <KEGG ID of Ligand>


> <ZINC ID of Ligand>


> <Number of Protein Chains in Target (bigger than 1 implies a multichain complex)>
1

> <BindingDB Target Chain Sequence>
MAMQMQLEANADTSVEEESFGPQPISRLEQCGINANDVKKLEEAGFHTVEAVAYAPKKELINIKGISEAKADKILAEAAKLVPMGFTTATEFHQRRSEIIQITTGSKELDKLLQGGIETGSITEMFGEFRTGKTQICHTLAVTCQLPIDRGGGEGKAMYIDTEGTFRPERLLAVAERYGLSGSDVLDNVAYARAFNTDHQTQLLYQASAMMVESRYALLIVDSATALYRTDYSGRGELSARQMHLARFLRMLLRLADEFGVAVVITNQVVAQVDGAAMFAADPKKPIGGNIIAHASTTRLYLRKGRGETRICKIYDSPCLPEAEAMFAINADGVGDAKD

> <PDB ID(s) of Target Chain>
1N0W,5JZC,5NP7,5NWL,8BQ2,8BR2,8BSC

> <UniProt (SwissProt) Recommended Name of Target Chain>
DNA repair protein RAD51 homolog 1

> <UniProt (SwissProt) Entry Name of Target Chain>
RAD51_HUMAN

> <UniProt (SwissProt) Primary ID of Target Chain>
Q06609

> <UniProt (SwissProt) Secondary ID(s) of Target Chain>
B0FXP0 B2R8T6 Q6FHX9 Q6ZNA8 Q9BV60

> <UniProt (SwissProt) Alternative ID(s) of Target Chain>


> <UniProt (TrEMBL) Submitted Name of Target Chain>


> <UniProt (TrEMBL) Entry Name of Target Chain>


> <UniProt (TrEMBL) Primary ID of Target Chain>


> <UniProt (TrEMBL) Secondary ID(s) of Target Chain>


> <UniProt (TrEMBL) Alternative ID(s) of Target Chain>


$$$$
00383001.cdx
  Mrv0541 07212217012D          

 45 48  0  0  0  0            999 V2000
    1.3943    1.7169    0.0000 N   0  0  0  0  0  0  0  0  0  0  0  0
    0.5693    1.7169    0.0000 C   0  0  0  0  0  0  0  0  0  0  0  0
    0.3144    0.9323    0.0000 C   0  0  0  0  0  0  0  0  0  0  0  0
    0.9818    0.4473    0.0000 S   0  0  0  0  0  0  0  0  0  0  0  0
    1.6492    0.9323    0.0000 C   0  0  0  0  0  0  0  0  0  0  0  0
   -0.4825    0.7187    0.0000 C   0  0  0  0  0  0  0  0  0  0  0  0
   -1.0659    1.3021    0.0000 C   0  0  0  0  0  0  0  0  0  0  0  0
   -1.8628    1.0886    0.0000 C   0  0  0  0  0  0  0  0  0  0  0  0
   -2.0763    0.2917    0.0000 C   0  0  0  0  0  0  0  0  0  0  0  0
   -1.4929   -0.2917    0.0000 C   0  0  0  0  0  0  0  0  0  0  0  0
   -0.6960   -0.0782    0.0000 C   0  0  0  0  0  0  0  0  0  0  0  0
   -0.1127   -0.6615    0.0000 S   0  0  0  0  0  0  0  0  0  0  0  0
   -0.3262   -1.4584    0.0000 N   0  0  0  0  0  0  0  0  0  0  0  0
    0.6842   -0.8750    0.0000 O   0  0  0  0  0  0  0  0  0  0  0  0
    0.4707   -0.0782    0.0000 O   0  0  0  0  0  0  0  0  0  0  0  0
   -1.1231   -1.6719    0.0000 C   0  0  0  0  0  0  0  0  0  0  0  0
   -1.3366   -2.4688    0.0000 C   0  0  0  0  0  0  0  0  0  0  0  0
   -1.7065   -1.0886    0.0000 C   0  0  0  0  0  0  0  0  0  0  0  0
   -1.9200   -1.8855    0.0000 C   0  0  0  0  0  0  0  0  0  0  0  0
    2.4461    0.7187    0.0000 C   0  0  0  0  0  0  0  0  0  0  0  0
    2.6597   -0.0782    0.0000 C   0  0  0  0  0  0  0  0  0  0  0  0
    3.4565   -0.2917    0.0000 C   0  0  0  0  0  0  0  0  0  0  0  0
    4.0399    0.2917    0.0000 C   0  0  0  0  0  0  0  0  0  0  0  0
    3.8264    1.0886    0.0000 C   0  0  0  0  0  0  0  0  0  0  0  0
    3.0295    1.3021    0.0000 C   0  0  0  0  0  0  0  0  0  0  0  0
    4.8368    0.0782    0.0000 N   0  0  0  0  0  0  0  0  0  0  0  0
    5.0503   -0.7187    0.0000 C   0  0  0  0  0  0  0  0  0  0  0  0
    5.8472   -0.9323    0.0000 O   0  0  0  0  0  0  0  0  0  0  0  0
    4.4670   -1.3021    0.0000 O   0  0  0  0  0  0  0  0  0  0  0  0
    6.4306   -0.3489    0.0000 C   0  0  0  0  0  0  0  0  0  0  0  0
   -2.8732    0.0782    0.0000 N   0  0  0  0  0  0  0  0  0  0  0  0
   -3.4566    0.6615    0.0000 C   0  0  0  0  0  0  0  0  0  0  0  0
   -4.2534    0.4480    0.0000 O   0  0  0  0  0  0  0  0  0  0  0  0
   -3.2430    1.4584    0.0000 O   0  0  0  0  0  0  0  0  0  0  0  0
   -4.8368    1.0314    0.0000 C   0  0  0  0  0  0  0  0  0  0  0  0
   -5.6337    0.8178    0.0000 C   0  0  0  0  0  0  0  0  0  0  0  0
    7.2275   -0.5624    0.0000 C   0  0  0  0  0  0  0  0  0  0  0  0
    6.2171    0.4480    0.0000 C   0  0  0  0  0  0  0  0  0  0  0  0
    4.4097    1.6719    0.0000 O   0  0  0  0  0  0  0  0  0  0  0  0
    4.1962    2.4688    0.0000 C   0  0  0  0  0  0  0  0  0  0  0  0
   -6.2171    1.4012    0.0000 C   0  0  0  0  0  0  0  0  0  0  0  0
   -7.0139    1.1877    0.0000 C   0  0  0  0  0  0  0  0  0  0  0  0
   -7.2275    0.3908    0.0000 C   0  0  0  0  0  0  0  0  0  0  0  0
   -6.6441   -0.1926    0.0000 C   0  0  0  0  0  0  0  0  0  0  0  0
   -5.8472    0.0209    0.0000 C   0  0  0  0  0  0  0  0  0  0  0  0
  1  2  4  0  0  0  0
  2  3  4  0  0  0  0
  3  4  4  0  0  0  0
  4  5  4  0  0  0  0
  5  1  4  0  0  0  0
  3  6  1  0  0  0  0
  6  7  4  0  0  0  0
  7  8  4  0  0  0  0
  8  9  4  0  0  0  0
  9 10  4  0  0  0  0
 10 11  4  0  0  0  0
 11  6  4  0  0  0  0
  9 31  1  0  0  0  0
 11 12  1  0  0  0  0
 12 13  1  0  0  0  0
 12 14  2  0  0  0  0
 15 12  2  0  0  0  0
 13 16  1  0  0  0  0
 16 17  1  0  0  0  0
 16 18  1  0  0  0  0
 16 19  1  0  0  0  0
  5 20  1  0  0  0  0
 20 21  4  0  0  0  0
 21 22  4  0  0  0  0
 22 23  4  0  0  0  0
 23 24  4  0  0  0  0
 24 25  4  0  0  0  0
 25 20  4  0  0  0  0
 23 26  1  0  0  0  0
 26 27  1  0  0  0  0
 27 28  1  0  0  0  0
 27 29  2  0  0  0  0
 28 30  1  0  0  0  0
 31 32  1  0  0  0  0
 32 33  1  0  0  0  0
 32 34  2  0  0  0  0
 33 35  1  0  0  0  0
 35 36  1  0  0  0  0
 30 37  1  0  0  0  0
 30 38  1  0  0  0  0
 24 39  1  0  0  0  0
 39 40  1  0  0  0  0
 36 41  4  0  0  0  0
 41 42  4  0  0  0  0
 42 43  4  0  0  0  0
 43 44  4  0  0  0  0
 44 45  4  0  0  0  0
 45 36  4  0  0  0  0
M  END
> <From>
www.bindingDB.org

> <BindingDB Reactant_set_id>
1155366

> <Ligand InChI>
InChI=1S/C32H36N4O7S2/c1-20(2)43-31(38)35-25-15-12-22(16-26(25)41-6)29-33-18-27(44-29)24-14-13-23(17-28(24)45(39,40)36-32(3,4)5)34-30(37)42-19-21-10-8-7-9-11-21/h7-18,20,36H,19H2,1-6H3,(H,34,37)(H,35,38)

> <Ligand InChI Key>
ZIPCISJUHKUTSE-UHFFFAOYSA-N

> <BindingDB MonomerID>
546516

> <BindingDB Ligand Name>
US11291655, No R7

> <Target Name>
DNA repair protein RAD51 homolog 1

> <Target Source Organism According to Curator or DataSource>
Homo sapiens

> <Ki (nM)>


> <IC50 (nM)>


> <Kd (nM)>


> <EC50 (nM)>
<1000

> <kon (M-1-s-1)>


> <koff (s-1)>


> <pH>


> <Temp C>


> <Curation/DataSource>
US Patent

> <Article DOI>


> <BindingDB Entry DOI>
10.7270/Q2NG4TV0

> <PMID>


> <PubChem AID>
aid1806421

> <Patent Number>
US11291655

> <Authors>
Castro, AC; McComas, CC; Vacca, J

> <Date of publication>
4/5/2022

> <Date in BindingDB>
7/21/2022

> <Institution>
Cyteir Therapeutics, Inc.

> <Link to Ligand in BindingDB>
http://www.bindingdb.org/bind/chemsearch/marvin/MolStructure.jsp?monomerid=546516

> <Link to Ligand-Target Pair in BindingDB>
http://www.bindingdb.org/jsp/dbsearch/PrimarySearch_ki.jsp?energyterm=kJ/mole&tag=pol&polymerid=4676&target=DNA+repair+protein+RAD51+homolog+1&column=ki&startPg=0&Increment=50&submit=Search

> <Link to Ligand-Target Pair in BindingDB>
http://www.bindingdb.org/jsp/dbsearch/PrimarySearch_ki.jsp?energyterm=kJ/mole&tag=r21&monomerid=546516&enzyme=DNA+repair+protein+RAD51+homolog+1&column=ki&startPg=0&Increment=50&submit=Search

> <Ligand HET ID in PDB>


> <PDB ID(s) for Ligand-Target Complex>


> <PubChem CID of Ligand>
137412000

> <PubChem SID of Ligand>
469681212

> <ChEBI ID of Ligand>


> <ChEMBL ID of Ligand>


> <DrugBank ID of Ligand>


> <IUPHAR_GRAC ID of Ligand>


> <KEGG ID of Ligand>


> <ZINC ID of Ligand>


> <Number of Protein Chains in Target (bigger than 1 implies a multichain complex)>
1

> <BindingDB Target Chain Sequence>
MAMQMQLEANADTSVEEESFGPQPISRLEQCGINANDVKKLEEAGFHTVEAVAYAPKKELINIKGISEAKADKILAEAAKLVPMGFTTATEFHQRRSEIIQITTGSKELDKLLQGGIETGSITEMFGEFRTGKTQICHTLAVTCQLPIDRGGGEGKAMYIDTEGTFRPERLLAVAERYGLSGSDVLDNVAYARAFNTDHQTQLLYQASAMMVESRYALLIVDSATALYRTDYSGRGELSARQMHLARFLRMLLRLADEFGVAVVITNQVVAQVDGAAMFAADPKKPIGGNIIAHASTTRLYLRKGRGETRICKIYDSPCLPEAEAMFAINADGVGDAKD

> <PDB ID(s) of Target Chain>
1N0W,5JZC,5NP7,5NWL,8BQ2,8BR2,8BSC

> <UniProt (SwissProt) Recommended Name of Target Chain>
DNA repair protein RAD51 homolog 1

> <UniProt (SwissProt) Entry Name of Target Chain>
RAD51_HUMAN

> <UniProt (SwissProt) Primary ID of Target Chain>
Q06609

> <UniProt (SwissProt) Secondary ID(s) of Target Chain>
B0FXP0 B2R8T6 Q6FHX9 Q6ZNA8 Q9BV60

> <UniProt (SwissProt) Alternative ID(s) of Target Chain>


> <UniProt (TrEMBL) Submitted Name of Target Chain>


> <UniProt (TrEMBL) Entry Name of Target Chain>


> <UniProt (TrEMBL) Primary ID of Target Chain>


> <UniProt (TrEMBL) Secondary ID(s) of Target Chain>


> <UniProt (TrEMBL) Alternative ID(s) of Target Chain>


$$$$

  Mrv0541 11211411572D          

 28 29  0  0  0  0            999 V2000
    5.0267   -6.7467    0.0000 S   0  0  0  0  0  0  0  0  0  0  0  0
    4.3271   -9.6370    0.0000 S   0  0  0  0  0  0  0  0  0  0  0  0
    3.6107   -9.2247    0.0000 C   0  0  0  0  0  0  0  0  0  0  0  0
    5.7389   -7.1507    0.0000 C   0  0  0  0  0  0  0  0  0  0  0  0
    0.7538   -9.2247    0.0000 C   0  0  0  0  0  0  0  0  0  0  0  0
    8.6000   -7.1382    0.0000 C   0  0  0  0  0  0  0  0  0  0  0  0
    5.0392   -8.3876    0.0000 C   0  0  0  0  0  0  0  0  0  0  0  0
    4.3229   -7.9753    0.0000 C   0  0  0  0  0  0  0  0  0  0  0  0
    4.3104   -6.3344    0.0000 O   0  5  0  0  0  0  0  0  0  0  0  0
    5.0392  -10.0493    0.0000 O   0  5  0  0  0  0  0  0  0  0  0  0
    6.4510   -6.7384    0.0000 C   0  0  0  0  0  0  0  0  0  0  0  0
    2.8903   -9.6370    0.0000 C   0  0  0  0  0  0  0  0  0  0  0  0
    3.6107   -8.3959    0.0000 C   0  0  0  0  0  0  0  0  0  0  0  0
    5.7514   -7.9753    0.0000 C   0  0  0  0  0  0  0  0  0  0  0  0
    4.3146   -7.1632    0.0000 O   0  0  0  0  0  0  0  0  0  0  0  0
    4.3271  -10.4616    0.0000 O   0  0  0  0  0  0  0  0  0  0  0  0
    5.0392   -9.2205    0.0000 O   0  0  0  0  0  0  0  0  0  0  0  0
    5.0142   -5.9221    0.0000 O   0  0  0  0  0  0  0  0  0  0  0  0
    1.4660   -9.6370    0.0000 N   0  0  0  0  0  0  0  0  0  0  0  0
    7.8878   -6.7259    0.0000 N   0  0  0  0  0  0  0  0  0  0  0  0
    9.3121   -6.7259    0.0000 S   0  0  0  0  0  0  0  0  0  0  0  0
    0.0375   -9.6370    0.0000 S   0  0  0  0  0  0  0  0  0  0  0  0
    2.1781   -9.2247    0.0000 C   0  0  0  0  0  0  0  0  0  0  0  0
    7.1757   -7.1465    0.0000 C   0  0  0  0  0  0  0  0  0  0  0  0
    6.4635   -8.3876    0.0000 C   0  0  0  0  0  0  0  0  0  0  0  0
    2.8903   -7.9836    0.0000 C   0  0  0  0  0  0  0  0  0  0  0  0
    7.1757   -7.9711    0.0000 C   0  0  0  0  0  0  0  0  0  0  0  0
    2.1781   -8.3959    0.0000 C   0  0  0  0  0  0  0  0  0  0  0  0
  2  3  1  0  0  0  0
  3 13  2  0  0  0  0
  4  1  1  0  0  0  0
  5 19  2  0  0  0  0
  6 20  2  0  0  0  0
  7 14  1  0  0  0  0
  8  7  2  0  0  0  0
  9  1  1  0  0  0  0
 10  2  1  0  0  0  0
 11  4  2  0  0  0  0
 12  3  1  0  0  0  0
 13  8  1  0  0  0  0
 14  4  1  0  0  0  0
 15  1  2  0  0  0  0
 16  2  2  0  0  0  0
 17  2  2  0  0  0  0
 18  1  2  0  0  0  0
 19 23  1  0  0  0  0
 20 24  1  0  0  0  0
 21  6  2  0  0  0  0
 22  5  2  0  0  0  0
 23 28  1  0  0  0  0
 24 11  1  0  0  0  0
 25 14  2  0  0  0  0
 26 13  1  0  0  0  0
 27 25  1  0  0  0  0
 28 26  2  0  0  0  0
 27 24  2  0  0  0  0
 23 12  2  0  0  0  0
M  CHG  2   9  -1  10  -1
M  END
> <From>
www.bindingDB.org

> <BindingDB Reactant_set_id>
51527507

> <Ligand InChI>
InChI=1S/C16H10N2O6S4/c19-27(20,21)15-7-13(17-9-25)5-3-11(15)1-2-12-4-6-14(18-10-26)8-16(12)28(22,23)24/h1-8H,(H,19,20,21)(H,22,23,24)/p-2/b2-1+

> <Ligand InChI Key>
YSCNMFDFYJUPEF-OWOJBTEDSA-L

> <BindingDB MonomerID>
50118214

> <BindingDB Ligand Name>
CHEMBL133930::DIDS

> <Target Name>
DNA repair protein RAD51 homolog 1

> <Target Source Organism According to Curator or DataSource>
Homo sapiens

> <Ki (nM)>


> <IC50 (nM)>
 750

> <Kd (nM)>


> <EC50 (nM)>


> <kon (M-1-s-1)>


> <koff (s-1)>


> <pH>


> <Temp C>


> <Curation/DataSource>
ChEMBL

> <Article DOI>


> <BindingDB Entry DOI>
10.7270/Q20G3QDN

> <PMID>
36990245

> <PubChem AID>


> <Patent Number>


> <Authors>
Demeyer, A; Fonteneau, L; Liennard, M; Foyer, C; Weigel, P; Laurent, AD; Lebreton, J; Fleury, F; Mathé-Allainmat, M

> <Date of publication>
5/1/2023

> <Date in BindingDB>
4/22/2024

> <Institution>
Nantes Universite

> <Link to Ligand in BindingDB>
http://www.bindingdb.org/bind/chemsearch/marvin/MolStructure.jsp?monomerid=50118214

> <Link to Ligand-Target Pair in BindingDB>
http://www.bindingdb.org/jsp/dbsearch/PrimarySearch_ki.jsp?energyterm=kJ/mole&tag=pol&polymerid=4676&target=DNA+repair+protein+RAD51+homolog+1&column=ki&startPg=0&Increment=50&submit=Search

> <Link to Ligand-Target Pair in BindingDB>
http://www.bindingdb.org/jsp/dbsearch/PrimarySearch_ki.jsp?energyterm=kJ/mole&tag=r21&monomerid=50118214&enzyme=DNA+repair+protein+RAD51+homolog+1&column=ki&startPg=0&Increment=50&submit=Search

> <Ligand HET ID in PDB>


> <PDB ID(s) for Ligand-Target Complex>


> <PubChem CID of Ligand>
6146472

> <PubChem SID of Ligand>
104011551

> <ChEBI ID of Ligand>


> <ChEMBL ID of Ligand>
CHEMBL133930

> <DrugBank ID of Ligand>


> <IUPHAR_GRAC ID of Ligand>


> <KEGG ID of Ligand>
C11591

> <ZINC ID of Ligand>
ZINC06844860

> <Number of Protein Chains in Target (bigger than 1 implies a multichain complex)>
1

> <BindingDB Target Chain Sequence>
MAMQMQLEANADTSVEEESFGPQPISRLEQCGINANDVKKLEEAGFHTVEAVAYAPKKELINIKGISEAKADKILAEAAKLVPMGFTTATEFHQRRSEIIQITTGSKELDKLLQGGIETGSITEMFGEFRTGKTQICHTLAVTCQLPIDRGGGEGKAMYIDTEGTFRPERLLAVAERYGLSGSDVLDNVAYARAFNTDHQTQLLYQASAMMVESRYALLIVDSATALYRTDYSGRGELSARQMHLARFLRMLLRLADEFGVAVVITNQVVAQVDGAAMFAADPKKPIGGNIIAHASTTRLYLRKGRGETRICKIYDSPCLPEAEAMFAINADGVGDAKD

> <PDB ID(s) of Target Chain>
1N0W,5JZC,5NP7,5NWL,8BQ2,8BR2,8BSC,8GYK,8PBC,8PBD

> <UniProt (SwissProt) Recommended Name of Target Chain>
DNA repair protein RAD51 homolog 1

> <UniProt (SwissProt) Entry Name of Target Chain>
RAD51_HUMAN

> <UniProt (SwissProt) Primary ID of Target Chain>
Q06609

> <UniProt (SwissProt) Secondary ID(s) of Target Chain>
B0FXP0 B2R8T6 Q6FHX9 Q6ZNA8 Q9BV60

> <UniProt (SwissProt) Alternative ID(s) of Target Chain>


> <UniProt (TrEMBL) Submitted Name of Target Chain>


> <UniProt (TrEMBL) Entry Name of Target Chain>


> <UniProt (TrEMBL) Primary ID of Target Chain>


> <UniProt (TrEMBL) Secondary ID(s) of Target Chain>


> <UniProt (TrEMBL) Alternative ID(s) of Target Chain>


$$$$

     RDKit          2D

 28 27  0  0  0  0  0  0  0  0999 V2000
   -2.4991   -0.2067    0.0000 C   0  0  0  0  0  0  0  0  0  0  0  0
   -1.7845    0.2055    0.0000 C   0  0  0  0  0  0  0  0  0  0  0  0
   -1.0727   -0.2062    0.0000 C   0  0  0  0  0  0  0  0  0  0  0  0
   -1.0727   -1.0315    0.0000 C   0  0  0  0  0  0  0  0  0  0  0  0
   -1.7827   -1.4433    0.0000 C   0  0  0  0  0  0  0  0  0  0  0  0
   -2.4991   -1.0352    0.0000 C   0  0  0  0  0  0  0  0  0  0  0  0
   -0.3580    0.2062    0.0000 C   0  0  0  0  0  0  0  0  0  0  0  0
    0.3565   -0.2062    0.0000 C   0  0  0  0  0  0  0  0  0  0  0  0
    1.0711    0.2062    0.0000 C   0  0  0  0  0  0  0  0  0  0  0  0
    1.0714    1.0315    0.0000 C   0  0  0  0  0  0  0  0  0  0  0  0
    1.7843    1.4422    0.0000 C   0  0  0  0  0  0  0  0  0  0  0  0
    2.4991    1.0294    0.0000 C   0  0  0  0  0  0  0  0  0  0  0  0
    2.5007    0.2083    0.0000 C   0  0  0  0  0  0  0  0  0  0  0  0
    1.7889   -0.2081    0.0000 C   0  0  0  0  0  0  0  0  0  0  0  0
    0.3568    1.4441    0.0000 S   0  0  0  0  0  0  0  0  0  0  0  0
   -0.3578    1.0315    0.0000 O   0  0  0  0  0  0  0  0  0  0  0  0
   -0.3580   -1.4440    0.0000 S   0  0  0  0  0  0  0  0  0  0  0  0
    0.3565   -1.0315    0.0000 O   0  0  0  0  0  0  0  0  0  0  0  0
    0.7701    2.1600    0.0000 O   0  0  0  0  0  0  0  0  0  0  0  0
   -0.0550    2.1600    0.0000 O   0  0  0  0  0  0  0  0  0  0  0  0
   -0.7714   -2.1600    0.0000 O   0  0  0  0  0  0  0  0  0  0  0  0
    0.0537   -2.1600    0.0000 O   0  0  0  0  0  0  0  0  0  0  0  0
   -3.2138   -1.4477    0.0000 C   0  0  0  0  0  0  0  0  0  0  0  0
   -3.9284   -1.8603    0.0000 N   0  0  0  0  0  0  0  0  0  0  0  0
    3.2138    1.4421    0.0000 C   0  0  0  0  0  0  0  0  0  0  0  0
    3.9284    1.8547    0.0000 N   0  0  0  0  0  0  0  0  0  0  0  0
    1.0381   -1.4885    0.0000 Na  0  0  0  0  0 15  0  0  0  0  0  0
   -1.2805    1.5224    0.0000 Na  0  0  0  0  0 15  0  0  0  0  0  0
  2  1  2  0
  3  2  1  0
  4  3  2  0
  5  4  1  0
  1  6  1  0
  6  5  2  0
  3  7  1  0
  7  8  2  0
  8  9  1  0
 10  9  2  0
 11 10  1  0
 12 11  2  0
 13 12  1  0
 14 13  2  0
  9 14  1  0
 10 15  1  0
 15 16  1  0
  4 17  1  0
 17 18  1  0
 15 19  2  0
 15 20  2  0
 17 21  2  0
 17 22  2  0
 23  6  1  0
 23 24  3  0
 25 12  1  0
 25 26  3  0
M  CHG  4  16  -1  18  -1  27   1  28   1
M  END
> <From>
www.bindingDB.org

> <BindingDB Reactant_set_id>
51527508

> <Ligand InChI>
InChI=1S/C16H10N2O6S2.2Na/c17-9-11-1-3-13(15(7-11)25(19,20)21)5-6-14-4-2-12(10-18)8-16(14)26(22,23)24;;/h1-8H,(H,19,20,21)(H,22,23,24);;/q;2*+1/p-2/b6-5+;;

> <Ligand InChI Key>
FECUKAQKBJOSJW-TXOOBNKBSA-L

> <BindingDB MonomerID>
50614578

> <BindingDB Ligand Name>
CHEMBL5280045

> <Target Name>
DNA repair protein RAD51 homolog 1

> <Target Source Organism According to Curator or DataSource>
Homo sapiens

> <Ki (nM)>


> <IC50 (nM)>
 1300

> <Kd (nM)>


> <EC50 (nM)>


> <kon (M-1-s-1)>


> <koff (s-1)>


> <pH>


> <Temp C>


> <Curation/DataSource>
ChEMBL

> <Article DOI>


> <BindingDB Entry DOI>
10.7270/Q20G3QDN

> <PMID>
36990245

> <PubChem AID>


> <Patent Number>


> <Authors>
Demeyer, A; Fonteneau, L; Liennard, M; Foyer, C; Weigel, P; Laurent, AD; Lebreton, J; Fleury, F; Mathé-Allainmat, M

> <Date of publication>
5/1/2023

> <Date in BindingDB>
4/22/2024

> <Institution>
Nantes Universite

> <Link to Ligand in BindingDB>
http://www.bindingdb.org/bind/chemsearch/marvin/MolStructure.jsp?monomerid=50614578

> <Link to Ligand-Target Pair in BindingDB>
http://www.bindingdb.org/rwd/jsp/dbsearch/PrimarySearch_ki.jsp?energyterm=kJ/mole&tag=pol&polymerid=4676&target=DNA+repair+protein+RAD51+homolog+1&column=ki&startPg=0&Increment=50&submit=Search

> <Link to Ligand-Target Pair in BindingDB>
http://www.bindingdb.org/rwd/jsp/dbsearch/PrimarySearch_ki.jsp?energyterm=kJ/mole&tag=r21&monomerid=50614578&enzyme=DNA+repair+protein+RAD51+homolog+1&column=ki&startPg=0&Increment=50&submit=Search

> <Ligand HET ID in PDB>


> <PDB ID(s) for Ligand-Target Complex>


> <PubChem CID of Ligand>
172676066

> <PubChem SID of Ligand>
494504326

> <ChEBI ID of Ligand>


> <ChEMBL ID of Ligand>


> <DrugBank ID of Ligand>


> <IUPHAR_GRAC ID of Ligand>


> <KEGG ID of Ligand>


> <ZINC ID of Ligand>


> <Number of Protein Chains in Target (bigger than 1 implies a multichain complex)>
1

> <BindingDB Target Chain Sequence>
MAMQMQLEANADTSVEEESFGPQPISRLEQCGINANDVKKLEEAGFHTVEAVAYAPKKELINIKGISEAKADKILAEAAKLVPMGFTTATEFHQRRSEIIQITTGSKELDKLLQGGIETGSITEMFGEFRTGKTQICHTLAVTCQLPIDRGGGEGKAMYIDTEGTFRPERLLAVAERYGLSGSDVLDNVAYARAFNTDHQTQLLYQASAMMVESRYALLIVDSATALYRTDYSGRGELSARQMHLARFLRMLLRLADEFGVAVVITNQVVAQVDGAAMFAADPKKPIGGNIIAHASTTRLYLRKGRGETRICKIYDSPCLPEAEAMFAINADGVGDAKD

> <PDB ID(s) of Target Chain>


> <UniProt (SwissProt) Recommended Name of Target Chain>
DNA repair protein RAD51 homolog 1

> <UniProt (SwissProt) Entry Name of Target Chain>
RAD51_HUMAN

> <UniProt (SwissProt) Primary ID of Target Chain>
Q06609

> <UniProt (SwissProt) Secondary ID(s) of Target Chain>
B0FXP0 B2R8T6 Q6FHX9 Q6ZNA8 Q9BV60

> <UniProt (SwissProt) Alternative ID(s) of Target Chain>


> <UniProt (TrEMBL) Submitted Name of Target Chain>


> <UniProt (TrEMBL) Entry Name of Target Chain>


> <UniProt (TrEMBL) Primary ID of Target Chain>


> <UniProt (TrEMBL) Secondary ID(s) of Target Chain>


> <UniProt (TrEMBL) Alternative ID(s) of Target Chain>


$$$$

     RDKit          2D

 26 25  0  0  0  0  0  0  0  0999 V2000
   -2.4991   -0.2067    0.0000 C   0  0  0  0  0  0  0  0  0  0  0  0
   -1.7845    0.2055    0.0000 C   0  0  0  0  0  0  0  0  0  0  0  0
   -1.0726   -0.2062    0.0000 C   0  0  0  0  0  0  0  0  0  0  0  0
   -1.0726   -1.0315    0.0000 C   0  0  0  0  0  0  0  0  0  0  0  0
   -1.7828   -1.4433    0.0000 C   0  0  0  0  0  0  0  0  0  0  0  0
   -2.4991   -1.0352    0.0000 C   0  0  0  0  0  0  0  0  0  0  0  0
   -0.3580    0.2062    0.0000 C   0  0  0  0  0  0  0  0  0  0  0  0
    0.3565   -0.2062    0.0000 C   0  0  0  0  0  0  0  0  0  0  0  0
    1.0712    0.2062    0.0000 C   0  0  0  0  0  0  0  0  0  0  0  0
    1.0714    1.0315    0.0000 C   0  0  0  0  0  0  0  0  0  0  0  0
    1.7843    1.4422    0.0000 C   0  0  0  0  0  0  0  0  0  0  0  0
    2.4992    1.0294    0.0000 C   0  0  0  0  0  0  0  0  0  0  0  0
    2.5007    0.2083    0.0000 C   0  0  0  0  0  0  0  0  0  0  0  0
    1.7889   -0.2081    0.0000 C   0  0  0  0  0  0  0  0  0  0  0  0
    0.3568    1.4441    0.0000 S   0  0  0  0  0  0  0  0  0  0  0  0
   -0.3578    1.0315    0.0000 O   0  0  0  0  0  0  0  0  0  0  0  0
   -0.3580   -1.4440    0.0000 S   0  0  0  0  0  0  0  0  0  0  0  0
    0.3565   -1.0315    0.0000 O   0  0  0  0  0  0  0  0  0  0  0  0
    0.7701    2.1600    0.0000 O   0  0  0  0  0  0  0  0  0  0  0  0
   -0.0549    2.1600    0.0000 O   0  0  0  0  0  0  0  0  0  0  0  0
   -0.7713   -2.1600    0.0000 O   0  0  0  0  0  0  0  0  0  0  0  0
    0.0537   -2.1600    0.0000 O   0  0  0  0  0  0  0  0  0  0  0  0
   -3.2137   -1.4477    0.0000 I   0  0  0  0  0  0  0  0  0  0  0  0
    3.2137    1.4421    0.0000 I   0  0  0  0  0  0  0  0  0  0  0  0
   -1.2806    1.3148    0.0000 K   0  0  0  0  0 15  0  0  0  0  0  0
    1.0728   -1.6615    0.0000 K   0  0  0  0  0 15  0  0  0  0  0  0
  2  1  2  0
  3  2  1  0
  4  3  2  0
  5  4  1  0
  1  6  1  0
  6  5  2  0
  3  7  1  0
  7  8  2  0
  8  9  1  0
 10  9  2  0
 11 10  1  0
 12 11  2  0
 13 12  1  0
 14 13  2  0
  9 14  1  0
 10 15  1  0
 15 16  1  0
  4 17  1  0
 17 18  1  0
 15 19  2  0
 15 20  2  0
 17 21  2  0
 17 22  2  0
  6 23  1  0
 12 24  1  0
M  CHG  4  16  -1  18  -1  25   1  26   1
M  END
> <From>
www.bindingDB.org

> <BindingDB Reactant_set_id>
51527509

> <Ligand InChI>
InChI=1S/C14H10I2O6S2.2K/c15-11-5-3-9(13(7-11)23(17,18)19)1-2-10-4-6-12(16)8-14(10)24(20,21)22;;/h1-8H,(H,17,18,19)(H,20,21,22);;/q;2*+1/p-2/b2-1+;;

> <Ligand InChI Key>
OQPOCTJWFVNXTQ-SEPHDYHBSA-L

> <BindingDB MonomerID>
50614579

> <BindingDB Ligand Name>
CHEMBL5267208

> <Target Name>
DNA repair protein RAD51 homolog 1

> <Target Source Organism According to Curator or DataSource>
Homo sapiens

> <Ki (nM)>


> <IC50 (nM)>
 17500

> <Kd (nM)>


> <EC50 (nM)>


> <kon (M-1-s-1)>


> <koff (s-1)>


> <pH>


> <Temp C>


> <Curation/DataSource>
ChEMBL

> <Article DOI>


> <BindingDB Entry DOI>
10.7270/Q20G3QDN

> <PMID>
36990245

> <PubChem AID>


> <Patent Number>


> <Authors>
Demeyer, A; Fonteneau, L; Liennard, M; Foyer, C; Weigel, P; Laurent, AD; Lebreton, J; Fleury, F; Mathé-Allainmat, M

> <Date of publication>
5/1/2023

> <Date in BindingDB>
4/22/2024

> <Institution>
Nantes Universite

> <Link to Ligand in BindingDB>
http://www.bindingdb.org/bind/chemsearch/marvin/MolStructure.jsp?monomerid=50614579

> <Link to Ligand-Target Pair in BindingDB>
http://www.bindingdb.org/rwd/jsp/dbsearch/PrimarySearch_ki.jsp?energyterm=kJ/mole&tag=pol&polymerid=4676&target=DNA+repair+protein+RAD51+homolog+1&column=ki&startPg=0&Increment=50&submit=Search

> <Link to Ligand-Target Pair in BindingDB>
http://www.bindingdb.org/rwd/jsp/dbsearch/PrimarySearch_ki.jsp?energyterm=kJ/mole&tag=r21&monomerid=50614579&enzyme=DNA+repair+protein+RAD51+homolog+1&column=ki&startPg=0&Increment=50&submit=Search

> <Ligand HET ID in PDB>


> <PDB ID(s) for Ligand-Target Complex>


> <PubChem CID of Ligand>
6312061

> <PubChem SID of Ligand>
494504327

> <ChEBI ID of Ligand>


> <ChEMBL ID of Ligand>


> <DrugBank ID of Ligand>


> <IUPHAR_GRAC ID of Ligand>


> <KEGG ID of Ligand>


> <ZINC ID of Ligand>


> <Number of Protein Chains in Target (bigger than 1 implies a multichain complex)>
1

> <BindingDB Target Chain Sequence>
MAMQMQLEANADTSVEEESFGPQPISRLEQCGINANDVKKLEEAGFHTVEAVAYAPKKELINIKGISEAKADKILAEAAKLVPMGFTTATEFHQRRSEIIQITTGSKELDKLLQGGIETGSITEMFGEFRTGKTQICHTLAVTCQLPIDRGGGEGKAMYIDTEGTFRPERLLAVAERYGLSGSDVLDNVAYARAFNTDHQTQLLYQASAMMVESRYALLIVDSATALYRTDYSGRGELSARQMHLARFLRMLLRLADEFGVAVVITNQVVAQVDGAAMFAADPKKPIGGNIIAHASTTRLYLRKGRGETRICKIYDSPCLPEAEAMFAINADGVGDAKD

> <PDB ID(s) of Target Chain>


> <UniProt (SwissProt) Recommended Name of Target Chain>
DNA repair protein RAD51 homolog 1

> <UniProt (SwissProt) Entry Name of Target Chain>
RAD51_HUMAN

> <UniProt (SwissProt) Primary ID of Target Chain>
Q06609

> <UniProt (SwissProt) Secondary ID(s) of Target Chain>
B0FXP0 B2R8T6 Q6FHX9 Q6ZNA8 Q9BV60

> <UniProt (SwissProt) Alternative ID(s) of Target Chain>


> <UniProt (TrEMBL) Submitted Name of Target Chain>


> <UniProt (TrEMBL) Entry Name of Target Chain>


> <UniProt (TrEMBL) Primary ID of Target Chain>


> <UniProt (TrEMBL) Secondary ID(s) of Target Chain>


> <UniProt (TrEMBL) Alternative ID(s) of Target Chain>


$$$$

     RDKit          2D

 30 29  0  0  0  0  0  0  0  0999 V2000
   -1.7844   -0.6728    0.0000 C   0  0  0  0  0  0  0  0  0  0  0  0
   -1.0698   -0.2605    0.0000 C   0  0  0  0  0  0  0  0  0  0  0  0
   -0.3580   -0.6725    0.0000 C   0  0  0  0  0  0  0  0  0  0  0  0
   -0.3580   -1.4976    0.0000 C   0  0  0  0  0  0  0  0  0  0  0  0
   -1.0681   -1.9095    0.0000 C   0  0  0  0  0  0  0  0  0  0  0  0
   -1.7844   -1.5013    0.0000 C   0  0  0  0  0  0  0  0  0  0  0  0
    0.3566   -0.2598    0.0000 C   0  0  0  0  0  0  0  0  0  0  0  0
    1.0712   -0.6725    0.0000 C   0  0  0  0  0  0  0  0  0  0  0  0
    1.7858   -0.2598    0.0000 C   0  0  0  0  0  0  0  0  0  0  0  0
    1.7860    0.5653    0.0000 C   0  0  0  0  0  0  0  0  0  0  0  0
    2.4989    0.9760    0.0000 C   0  0  0  0  0  0  0  0  0  0  0  0
    3.2137    0.5633    0.0000 C   0  0  0  0  0  0  0  0  0  0  0  0
    3.2154   -0.2577    0.0000 C   0  0  0  0  0  0  0  0  0  0  0  0
    2.5036   -0.6742    0.0000 C   0  0  0  0  0  0  0  0  0  0  0  0
    1.0714    0.9779    0.0000 S   0  0  0  0  0  0  0  0  0  0  0  0
    0.3568    0.5653    0.0000 O   0  0  0  0  0  0  0  0  0  0  0  0
    0.3566   -1.9102    0.0000 S   0  0  0  0  0  0  0  0  0  0  0  0
    1.0712   -1.4976    0.0000 O   0  0  0  0  0  0  0  0  0  0  0  0
    1.4848    1.6938    0.0000 O   0  0  0  0  0  0  0  0  0  0  0  0
    0.6596    1.6938    0.0000 O   0  0  0  0  0  0  0  0  0  0  0  0
   -0.0567   -2.6262    0.0000 O   0  0  0  0  0  0  0  0  0  0  0  0
    0.7683   -2.6262    0.0000 O   0  0  0  0  0  0  0  0  0  0  0  0
   -2.4991   -1.9139    0.0000 N   0  0  0  0  0  0  0  0  0  0  0  0
    3.9284    0.9758    0.0000 N   0  0  0  0  0  0  0  0  0  0  0  0
    3.9284    1.8011    0.0000 N   0  0  0  0  0  0  0  0  0  0  0  0
    3.9284    2.6262    0.0000 N   0  0  0  0  0  0  0  0  0  0  0  0
   -3.2137   -1.5013    0.0000 N   0  0  0  0  0  0  0  0  0  0  0  0
   -3.9284   -1.0888    0.0000 N   0  0  0  0  0  0  0  0  0  0  0  0
    1.7874   -1.9552    0.0000 Na  0  0  0  0  0 15  0  0  0  0  0  0
   -0.7389    1.0557    0.0000 Na  0  0  0  0  0 15  0  0  0  0  0  0
  2  1  2  0
  3  2  1  0
  4  3  2  0
  5  4  1  0
  1  6  1  0
  6  5  2  0
  3  7  1  0
  7  8  2  0
  8  9  1  0
 10  9  2  0
 11 10  1  0
 12 11  2  0
 13 12  1  0
 14 13  2  0
  9 14  1  0
 10 15  1  0
 15 16  1  0
  4 17  1  0
 17 18  1  0
 15 19  2  0
 15 20  2  0
 17 21  2  0
 17 22  2  0
  6 23  1  0
 12 24  1  0
 24 25  2  0
 25 26  2  0
 23 27  2  0
 27 28  2  0
M  CHG  8  16  -1  18  -1  25   1  26  -1  27   1  28  -1  29   1  30   1
M  END
> <From>
www.bindingDB.org

> <BindingDB Reactant_set_id>
51527510

> <Ligand InChI>
InChI=1S/C14H10N6O6S2.2Na/c15-19-17-11-5-3-9(13(7-11)27(21,22)23)1-2-10-4-6-12(18-20-16)8-14(10)28(24,25)26;;/h1-8H,(H,21,22,23)(H,24,25,26);;/q;2*+1/p-2/b2-1+;;

> <Ligand InChI Key>
HYYYTIDWAIQGHI-SEPHDYHBSA-L

> <BindingDB MonomerID>
50614580

> <BindingDB Ligand Name>
CHEMBL5269627

> <Target Name>
DNA repair protein RAD51 homolog 1

> <Target Source Organism According to Curator or DataSource>
Homo sapiens

> <Ki (nM)>


> <IC50 (nM)>
 10000

> <Kd (nM)>


> <EC50 (nM)>


> <kon (M-1-s-1)>


> <koff (s-1)>


> <pH>


> <Temp C>


> <Curation/DataSource>
ChEMBL

> <Article DOI>


> <BindingDB Entry DOI>
10.7270/Q20G3QDN

> <PMID>
36990245

> <PubChem AID>


> <Patent Number>


> <Authors>
Demeyer, A; Fonteneau, L; Liennard, M; Foyer, C; Weigel, P; Laurent, AD; Lebreton, J; Fleury, F; Mathé-Allainmat, M

> <Date of publication>
5/1/2023

> <Date in BindingDB>
4/22/2024

> <Institution>
Nantes Universite

> <Link to Ligand in BindingDB>
http://www.bindingdb.org/bind/chemsearch/marvin/MolStructure.jsp?monomerid=50614580

> <Link to Ligand-Target Pair in BindingDB>
http://www.bindingdb.org/rwd/jsp/dbsearch/PrimarySearch_ki.jsp?energyterm=kJ/mole&tag=pol&polymerid=4676&target=DNA+repair+protein+RAD51+homolog+1&column=ki&startPg=0&Increment=50&submit=Search

> <Link to Ligand-Target Pair in BindingDB>
http://www.bindingdb.org/rwd/jsp/dbsearch/PrimarySearch_ki.jsp?energyterm=kJ/mole&tag=r21&monomerid=50614580&enzyme=DNA+repair+protein+RAD51+homolog+1&column=ki&startPg=0&Increment=50&submit=Search

> <Ligand HET ID in PDB>


> <PDB ID(s) for Ligand-Target Complex>


> <PubChem CID of Ligand>
6057277

> <PubChem SID of Ligand>
494504328

> <ChEBI ID of Ligand>


> <ChEMBL ID of Ligand>


> <DrugBank ID of Ligand>


> <IUPHAR_GRAC ID of Ligand>


> <KEGG ID of Ligand>


> <ZINC ID of Ligand>


> <Number of Protein Chains in Target (bigger than 1 implies a multichain complex)>
1

> <BindingDB Target Chain Sequence>
MAMQMQLEANADTSVEEESFGPQPISRLEQCGINANDVKKLEEAGFHTVEAVAYAPKKELINIKGISEAKADKILAEAAKLVPMGFTTATEFHQRRSEIIQITTGSKELDKLLQGGIETGSITEMFGEFRTGKTQICHTLAVTCQLPIDRGGGEGKAMYIDTEGTFRPERLLAVAERYGLSGSDVLDNVAYARAFNTDHQTQLLYQASAMMVESRYALLIVDSATALYRTDYSGRGELSARQMHLARFLRMLLRLADEFGVAVVITNQVVAQVDGAAMFAADPKKPIGGNIIAHASTTRLYLRKGRGETRICKIYDSPCLPEAEAMFAINADGVGDAKD

> <PDB ID(s) of Target Chain>


> <UniProt (SwissProt) Recommended Name of Target Chain>
DNA repair protein RAD51 homolog 1

> <UniProt (SwissProt) Entry Name of Target Chain>
RAD51_HUMAN

> <UniProt (SwissProt) Primary ID of Target Chain>
Q06609

> <UniProt (SwissProt) Secondary ID(s) of Target Chain>
B0FXP0 B2R8T6 Q6FHX9 Q6ZNA8 Q9BV60

> <UniProt (SwissProt) Alternative ID(s) of Target Chain>


> <UniProt (TrEMBL) Submitted Name of Target Chain>


> <UniProt (TrEMBL) Entry Name of Target Chain>


> <UniProt (TrEMBL) Primary ID of Target Chain>


> <UniProt (TrEMBL) Secondary ID(s) of Target Chain>


> <UniProt (TrEMBL) Alternative ID(s) of Target Chain>


$$$$

     RDKit          2D

 32 31  0  0  0  0  0  0  0  0999 V2000
   -1.5574    1.2796    0.0000 Na  0  0  0  0  0 15  0  0  0  0  0  0
    1.2458   -1.4198    0.0000 Na  0  0  0  0  0 15  0  0  0  0  0  0
   -2.4991   -0.2067    0.0000 C   0  0  0  0  0  0  0  0  0  0  0  0
   -1.7845    0.2055    0.0000 C   0  0  0  0  0  0  0  0  0  0  0  0
   -1.0727   -0.2062    0.0000 C   0  0  0  0  0  0  0  0  0  0  0  0
   -1.0727   -1.0315    0.0000 C   0  0  0  0  0  0  0  0  0  0  0  0
   -1.7827   -1.4433    0.0000 C   0  0  0  0  0  0  0  0  0  0  0  0
   -2.4991   -1.0352    0.0000 C   0  0  0  0  0  0  0  0  0  0  0  0
   -0.3580    0.2062    0.0000 C   0  0  0  0  0  0  0  0  0  0  0  0
    0.3565   -0.2062    0.0000 C   0  0  0  0  0  0  0  0  0  0  0  0
    1.0711    0.2062    0.0000 C   0  0  0  0  0  0  0  0  0  0  0  0
    1.0714    1.0315    0.0000 C   0  0  0  0  0  0  0  0  0  0  0  0
    1.7843    1.4422    0.0000 C   0  0  0  0  0  0  0  0  0  0  0  0
    2.4991    1.0294    0.0000 C   0  0  0  0  0  0  0  0  0  0  0  0
    2.5007    0.2083    0.0000 C   0  0  0  0  0  0  0  0  0  0  0  0
    1.7889   -0.2081    0.0000 C   0  0  0  0  0  0  0  0  0  0  0  0
    0.3568    1.4441    0.0000 S   0  0  0  0  0  0  0  0  0  0  0  0
   -0.3578    1.0315    0.0000 O   0  0  0  0  0  0  0  0  0  0  0  0
   -0.3580   -1.4440    0.0000 S   0  0  0  0  0  0  0  0  0  0  0  0
    0.3565   -1.0315    0.0000 O   0  0  0  0  0  0  0  0  0  0  0  0
    0.7701    2.1600    0.0000 O   0  0  0  0  0  0  0  0  0  0  0  0
   -0.0550    2.1600    0.0000 O   0  0  0  0  0  0  0  0  0  0  0  0
   -0.7714   -2.1600    0.0000 O   0  0  0  0  0  0  0  0  0  0  0  0
    0.0537   -2.1600    0.0000 O   0  0  0  0  0  0  0  0  0  0  0  0
   -3.2138   -1.4477    0.0000 N   0  0  0  0  0  0  0  0  0  0  0  0
    3.2138    1.4421    0.0000 N   0  0  0  0  0  0  0  0  0  0  0  0
   -3.9284   -1.0352    0.0000 C   0  0  0  0  0  0  0  0  0  0  0  0
    3.9284    1.0294    0.0000 C   0  0  0  0  0  0  0  0  0  0  0  0
   -4.6430   -1.4477    0.0000 C   0  0  0  0  0  0  0  0  0  0  0  0
   -3.9284   -0.2099    0.0000 O   0  0  0  0  0  0  0  0  0  0  0  0
    4.6430    1.4421    0.0000 C   0  0  0  0  0  0  0  0  0  0  0  0
    3.9284    0.2043    0.0000 O   0  0  0  0  0  0  0  0  0  0  0  0
  4  3  2  0
  5  4  1  0
  6  5  2  0
  7  6  1  0
  3  8  1  0
  8  7  2  0
  5  9  1  0
  9 10  2  0
 10 11  1  0
 12 11  2  0
 13 12  1  0
 14 13  2  0
 15 14  1  0
 16 15  2  0
 11 16  1  0
 12 17  1  0
 17 18  1  0
  6 19  1  0
 19 20  1  0
 17 21  2  0
 17 22  2  0
 19 23  2  0
 19 24  2  0
  8 25  1  0
 14 26  1  0
 25 27  1  0
 26 28  1  0
 27 29  1  0
 27 30  2  0
 28 31  1  0
 28 32  2  0
M  CHG  4   1   1   2   1  18  -1  20  -1
M  END
> <From>
www.bindingDB.org

> <BindingDB Reactant_set_id>
51527511

> <Ligand InChI>
InChI=1S/C18H18N2O8S2.2Na/c1-11(21)19-15-7-5-13(17(9-15)29(23,24)25)3-4-14-6-8-16(20-12(2)22)10-18(14)30(26,27)28;;/h3-10H,1-2H3,(H,19,21)(H,20,22)(H,23,24,25)(H,26,27,28);;/q;2*+1/p-2/b4-3+;;

> <Ligand InChI Key>
SVHHNKBHDVTVCG-CZEFNJPISA-L

> <BindingDB MonomerID>
50614581

> <BindingDB Ligand Name>
CHEMBL5281504

> <Target Name>
DNA repair protein RAD51 homolog 1

> <Target Source Organism According to Curator or DataSource>
Homo sapiens

> <Ki (nM)>


> <IC50 (nM)>
>50000

> <Kd (nM)>


> <EC50 (nM)>


> <kon (M-1-s-1)>


> <koff (s-1)>


> <pH>


> <Temp C>


> <Curation/DataSource>
ChEMBL

> <Article DOI>


> <BindingDB Entry DOI>
10.7270/Q20G3QDN

> <PMID>
36990245

> <PubChem AID>


> <Patent Number>


> <Authors>
Demeyer, A; Fonteneau, L; Liennard, M; Foyer, C; Weigel, P; Laurent, AD; Lebreton, J; Fleury, F; Mathé-Allainmat, M

> <Date of publication>
5/1/2023

> <Date in BindingDB>
4/22/2024

> <Institution>
Nantes Universite

> <Link to Ligand in BindingDB>
http://www.bindingdb.org/bind/chemsearch/marvin/MolStructure.jsp?monomerid=50614581

> <Link to Ligand-Target Pair in BindingDB>
http://www.bindingdb.org/rwd/jsp/dbsearch/PrimarySearch_ki.jsp?energyterm=kJ/mole&tag=pol&polymerid=4676&target=DNA+repair+protein+RAD51+homolog+1&column=ki&startPg=0&Increment=50&submit=Search

> <Link to Ligand-Target Pair in BindingDB>
http://www.bindingdb.org/rwd/jsp/dbsearch/PrimarySearch_ki.jsp?energyterm=kJ/mole&tag=r21&monomerid=50614581&enzyme=DNA+repair+protein+RAD51+homolog+1&column=ki&startPg=0&Increment=50&submit=Search

> <Ligand HET ID in PDB>


> <PDB ID(s) for Ligand-Target Complex>


> <PubChem CID of Ligand>
5749280

> <PubChem SID of Ligand>
494504329

> <ChEBI ID of Ligand>


> <ChEMBL ID of Ligand>


> <DrugBank ID of Ligand>


> <IUPHAR_GRAC ID of Ligand>


> <KEGG ID of Ligand>


> <ZINC ID of Ligand>


> <Number of Protein Chains in Target (bigger than 1 implies a multichain complex)>
1

> <BindingDB Target Chain Sequence>
MAMQMQLEANADTSVEEESFGPQPISRLEQCGINANDVKKLEEAGFHTVEAVAYAPKKELINIKGISEAKADKILAEAAKLVPMGFTTATEFHQRRSEIIQITTGSKELDKLLQGGIETGSITEMFGEFRTGKTQICHTLAVTCQLPIDRGGGEGKAMYIDTEGTFRPERLLAVAERYGLSGSDVLDNVAYARAFNTDHQTQLLYQASAMMVESRYALLIVDSATALYRTDYSGRGELSARQMHLARFLRMLLRLADEFGVAVVITNQVVAQVDGAAMFAADPKKPIGGNIIAHASTTRLYLRKGRGETRICKIYDSPCLPEAEAMFAINADGVGDAKD

> <PDB ID(s) of Target Chain>


> <UniProt (SwissProt) Recommended Name of Target Chain>
DNA repair protein RAD51 homolog 1

> <UniProt (SwissProt) Entry Name of Target Chain>
RAD51_HUMAN

> <UniProt (SwissProt) Primary ID of Target Chain>
Q06609

> <UniProt (SwissProt) Secondary ID(s) of Target Chain>
B0FXP0 B2R8T6 Q6FHX9 Q6ZNA8 Q9BV60

> <UniProt (SwissProt) Alternative ID(s) of Target Chain>


> <UniProt (TrEMBL) Submitted Name of Target Chain>


> <UniProt (TrEMBL) Entry Name of Target Chain>


> <UniProt (TrEMBL) Primary ID of Target Chain>


> <UniProt (TrEMBL) Secondary ID(s) of Target Chain>


> <UniProt (TrEMBL) Alternative ID(s) of Target Chain>


$$$$

     RDKit          2D

 34 33  0  0  0  0  0  0  0  0999 V2000
   -2.4991   -0.2038    0.0000 C   0  0  0  0  0  0  0  0  0  0  0  0
   -1.7845    0.2084    0.0000 C   0  0  0  0  0  0  0  0  0  0  0  0
   -1.0727   -0.2034    0.0000 C   0  0  0  0  0  0  0  0  0  0  0  0
   -1.0727   -1.0286    0.0000 C   0  0  0  0  0  0  0  0  0  0  0  0
   -1.7827   -1.4404    0.0000 C   0  0  0  0  0  0  0  0  0  0  0  0
   -2.4991   -1.0323    0.0000 C   0  0  0  0  0  0  0  0  0  0  0  0
   -0.3580    0.2091    0.0000 C   0  0  0  0  0  0  0  0  0  0  0  0
    0.3565   -0.2034    0.0000 C   0  0  0  0  0  0  0  0  0  0  0  0
    1.0712    0.2091    0.0000 C   0  0  0  0  0  0  0  0  0  0  0  0
    1.0714    1.0343    0.0000 C   0  0  0  0  0  0  0  0  0  0  0  0
    1.7843    1.4450    0.0000 C   0  0  0  0  0  0  0  0  0  0  0  0
    2.4991    1.0323    0.0000 C   0  0  0  0  0  0  0  0  0  0  0  0
    2.5007    0.2112    0.0000 C   0  0  0  0  0  0  0  0  0  0  0  0
    1.7889   -0.2052    0.0000 C   0  0  0  0  0  0  0  0  0  0  0  0
    0.3568    1.4469    0.0000 S   0  0  0  0  0  0  0  0  0  0  0  0
   -0.3577    1.0343    0.0000 O   0  0  0  0  0  0  0  0  0  0  0  0
   -0.3580   -1.4412    0.0000 S   0  0  0  0  0  0  0  0  0  0  0  0
    0.3565   -1.0286    0.0000 O   0  0  0  0  0  0  0  0  0  0  0  0
    0.7701    2.1629    0.0000 O   0  0  0  0  0  0  0  0  0  0  0  0
   -0.0550    2.1629    0.0000 O   0  0  0  0  0  0  0  0  0  0  0  0
   -0.7714   -2.1572    0.0000 O   0  0  0  0  0  0  0  0  0  0  0  0
    0.0537   -2.1572    0.0000 O   0  0  0  0  0  0  0  0  0  0  0  0
   -3.2138   -1.4449    0.0000 N   0  0  0  0  0  0  0  0  0  0  0  0
    3.2138    1.4449    0.0000 N   0  0  0  0  0  0  0  0  0  0  0  0
   -3.9284   -1.0323    0.0000 C   0  0  0  0  0  0  0  0  0  0  0  0
    3.9284    1.0323    0.0000 C   0  0  0  0  0  0  0  0  0  0  0  0
   -4.6430   -1.4449    0.0000 C   0  0  0  0  0  0  0  0  0  0  0  0
   -3.9284   -0.2071    0.0000 O   0  0  0  0  0  0  0  0  0  0  0  0
   -4.6430   -2.2701    0.0000 C   0  0  0  0  0  0  0  0  0  0  0  0
    4.6430    1.4449    0.0000 C   0  0  0  0  0  0  0  0  0  0  0  0
    3.9284    0.2071    0.0000 O   0  0  0  0  0  0  0  0  0  0  0  0
    4.6430    2.2701    0.0000 C   0  0  0  0  0  0  0  0  0  0  0  0
    1.3150   -1.3476    0.0000 Na  0  0  0  0  0 15  0  0  0  0  0  0
   -1.5228    1.3864    0.0000 Na  0  0  0  0  0 15  0  0  0  0  0  0
  2  1  2  0
  3  2  1  0
  4  3  2  0
  5  4  1  0
  1  6  1  0
  6  5  2  0
  3  7  1  0
  7  8  2  0
  8  9  1  0
 10  9  2  0
 11 10  1  0
 12 11  2  0
 13 12  1  0
 14 13  2  0
  9 14  1  0
 10 15  1  0
 15 16  1  0
  4 17  1  0
 17 18  1  0
 15 19  2  0
 15 20  2  0
 17 21  2  0
 17 22  2  0
  6 23  1  0
 12 24  1  0
 23 25  1  0
 24 26  1  0
 25 27  1  0
 25 28  2  0
 27 29  1  0
 26 30  1  0
 26 31  2  0
 30 32  1  0
M  CHG  4  16  -1  18  -1  33   1  34   1
M  END
> <From>
www.bindingDB.org

> <BindingDB Reactant_set_id>
51527512

> <Ligand InChI>
InChI=1S/C20H22N2O8S2.2Na/c1-3-19(23)21-15-9-7-13(17(11-15)31(25,26)27)5-6-14-8-10-16(22-20(24)4-2)12-18(14)32(28,29)30;;/h5-12H,3-4H2,1-2H3,(H,21,23)(H,22,24)(H,25,26,27)(H,28,29,30);;/q;2*+1/p-2/b6-5+;;

> <Ligand InChI Key>
RPIPZOBMFMVWQW-TXOOBNKBSA-L

> <BindingDB MonomerID>
50614582

> <BindingDB Ligand Name>
CHEMBL5284017

> <Target Name>
DNA repair protein RAD51 homolog 1

> <Target Source Organism According to Curator or DataSource>
Homo sapiens

> <Ki (nM)>


> <IC50 (nM)>
>50000

> <Kd (nM)>


> <EC50 (nM)>


> <kon (M-1-s-1)>


> <koff (s-1)>


> <pH>


> <Temp C>


> <Curation/DataSource>
ChEMBL

> <Article DOI>


> <BindingDB Entry DOI>
10.7270/Q20G3QDN

> <PMID>
36990245

> <PubChem AID>


> <Patent Number>


> <Authors>
Demeyer, A; Fonteneau, L; Liennard, M; Foyer, C; Weigel, P; Laurent, AD; Lebreton, J; Fleury, F; Mathé-Allainmat, M

> <Date of publication>
5/1/2023

> <Date in BindingDB>
4/22/2024

> <Institution>
Nantes Universite

> <Link to Ligand in BindingDB>
http://www.bindingdb.org/bind/chemsearch/marvin/MolStructure.jsp?monomerid=50614582

> <Link to Ligand-Target Pair in BindingDB>
http://www.bindingdb.org/rwd/jsp/dbsearch/PrimarySearch_ki.jsp?energyterm=kJ/mole&tag=pol&polymerid=4676&target=DNA+repair+protein+RAD51+homolog+1&column=ki&startPg=0&Increment=50&submit=Search

> <Link to Ligand-Target Pair in BindingDB>
http://www.bindingdb.org/rwd/jsp/dbsearch/PrimarySearch_ki.jsp?energyterm=kJ/mole&tag=r21&monomerid=50614582&enzyme=DNA+repair+protein+RAD51+homolog+1&column=ki&startPg=0&Increment=50&submit=Search

> <Ligand HET ID in PDB>


> <PDB ID(s) for Ligand-Target Complex>


> <PubChem CID of Ligand>
172676067

> <PubChem SID of Ligand>
494504330

> <ChEBI ID of Ligand>


> <ChEMBL ID of Ligand>


> <DrugBank ID of Ligand>


> <IUPHAR_GRAC ID of Ligand>


> <KEGG ID of Ligand>


> <ZINC ID of Ligand>


> <Number of Protein Chains in Target (bigger than 1 implies a multichain complex)>
1

> <BindingDB Target Chain Sequence>
MAMQMQLEANADTSVEEESFGPQPISRLEQCGINANDVKKLEEAGFHTVEAVAYAPKKELINIKGISEAKADKILAEAAKLVPMGFTTATEFHQRRSEIIQITTGSKELDKLLQGGIETGSITEMFGEFRTGKTQICHTLAVTCQLPIDRGGGEGKAMYIDTEGTFRPERLLAVAERYGLSGSDVLDNVAYARAFNTDHQTQLLYQASAMMVESRYALLIVDSATALYRTDYSGRGELSARQMHLARFLRMLLRLADEFGVAVVITNQVVAQVDGAAMFAADPKKPIGGNIIAHASTTRLYLRKGRGETRICKIYDSPCLPEAEAMFAINADGVGDAKD

> <PDB ID(s) of Target Chain>


> <UniProt (SwissProt) Recommended Name of Target Chain>
DNA repair protein RAD51 homolog 1

> <UniProt (SwissProt) Entry Name of Target Chain>
RAD51_HUMAN

> <UniProt (SwissProt) Primary ID of Target Chain>
Q06609

> <UniProt (SwissProt) Secondary ID(s) of Target Chain>
B0FXP0 B2R8T6 Q6FHX9 Q6ZNA8 Q9BV60

> <UniProt (SwissProt) Alternative ID(s) of Target Chain>


> <UniProt (TrEMBL) Submitted Name of Target Chain>


> <UniProt (TrEMBL) Entry Name of Target Chain>


> <UniProt (TrEMBL) Primary ID of Target Chain>


> <UniProt (TrEMBL) Secondary ID(s) of Target Chain>


> <UniProt (TrEMBL) Alternative ID(s) of Target Chain>


$$$$

     RDKit          2D

 42 43  0  0  0  0  0  0  0  0999 V2000
   -2.4991   -0.2038    0.0000 C   0  0  0  0  0  0  0  0  0  0  0  0
   -1.7845    0.2084    0.0000 C   0  0  0  0  0  0  0  0  0  0  0  0
   -1.0726   -0.2034    0.0000 C   0  0  0  0  0  0  0  0  0  0  0  0
   -1.0726   -1.0286    0.0000 C   0  0  0  0  0  0  0  0  0  0  0  0
   -1.7827   -1.4404    0.0000 C   0  0  0  0  0  0  0  0  0  0  0  0
   -2.4991   -1.0323    0.0000 C   0  0  0  0  0  0  0  0  0  0  0  0
   -0.3580    0.2091    0.0000 C   0  0  0  0  0  0  0  0  0  0  0  0
    0.3565   -0.2034    0.0000 C   0  0  0  0  0  0  0  0  0  0  0  0
    1.0712    0.2091    0.0000 C   0  0  0  0  0  0  0  0  0  0  0  0
    1.0714    1.0343    0.0000 C   0  0  0  0  0  0  0  0  0  0  0  0
    1.7843    1.4450    0.0000 C   0  0  0  0  0  0  0  0  0  0  0  0
    2.4991    1.0323    0.0000 C   0  0  0  0  0  0  0  0  0  0  0  0
    2.5007    0.2112    0.0000 C   0  0  0  0  0  0  0  0  0  0  0  0
    1.7889   -0.2052    0.0000 C   0  0  0  0  0  0  0  0  0  0  0  0
    0.3568    1.4469    0.0000 S   0  0  0  0  0  0  0  0  0  0  0  0
   -0.3577    1.0343    0.0000 O   0  0  0  0  0  0  0  0  0  0  0  0
   -0.3580   -1.4412    0.0000 S   0  0  0  0  0  0  0  0  0  0  0  0
    0.3565   -1.0286    0.0000 O   0  0  0  0  0  0  0  0  0  0  0  0
    0.7702    2.1629    0.0000 O   0  0  0  0  0  0  0  0  0  0  0  0
   -0.0549    2.1629    0.0000 O   0  0  0  0  0  0  0  0  0  0  0  0
   -0.7714   -2.1572    0.0000 O   0  0  0  0  0  0  0  0  0  0  0  0
    0.0537   -2.1572    0.0000 O   0  0  0  0  0  0  0  0  0  0  0  0
   -3.2137   -1.4449    0.0000 N   0  0  0  0  0  0  0  0  0  0  0  0
    3.2138    1.4449    0.0000 N   0  0  0  0  0  0  0  0  0  0  0  0
   -3.9284   -1.0323    0.0000 C   0  0  0  0  0  0  0  0  0  0  0  0
    3.9284    1.0323    0.0000 C   0  0  0  0  0  0  0  0  0  0  0  0
   -4.6430   -1.4449    0.0000 C   0  0  0  0  0  0  0  0  0  0  0  0
   -3.9284   -0.2071    0.0000 O   0  0  0  0  0  0  0  0  0  0  0  0
    4.6430    1.4449    0.0000 C   0  0  0  0  0  0  0  0  0  0  0  0
    3.9284    0.2071    0.0000 O   0  0  0  0  0  0  0  0  0  0  0  0
    4.6433    2.2702    0.0000 C   0  0  0  0  0  0  0  0  0  0  0  0
    5.3561    2.6809    0.0000 C   0  0  0  0  0  0  0  0  0  0  0  0
    6.0710    2.2681    0.0000 C   0  0  0  0  0  0  0  0  0  0  0  0
    6.0726    1.4470    0.0000 C   0  0  0  0  0  0  0  0  0  0  0  0
    5.3608    1.0306    0.0000 C   0  0  0  0  0  0  0  0  0  0  0  0
   -4.6432   -2.2702    0.0000 C   0  0  0  0  0  0  0  0  0  0  0  0
   -5.3561   -2.6809    0.0000 C   0  0  0  0  0  0  0  0  0  0  0  0
   -6.0709   -2.2681    0.0000 C   0  0  0  0  0  0  0  0  0  0  0  0
   -6.0726   -1.4470    0.0000 C   0  0  0  0  0  0  0  0  0  0  0  0
   -5.3607   -1.0306    0.0000 C   0  0  0  0  0  0  0  0  0  0  0  0
   -1.3843    1.3864    0.0000 Na  0  0  0  0  0 15  0  0  0  0  0  0
    1.2458   -1.3822    0.0000 Na  0  0  0  0  0 15  0  0  0  0  0  0
  2  1  2  0
  3  2  1  0
  4  3  2  0
  5  4  1  0
  1  6  1  0
  6  5  2  0
  3  7  1  0
  7  8  2  0
  8  9  1  0
 10  9  2  0
 11 10  1  0
 12 11  2  0
 13 12  1  0
 14 13  2  0
  9 14  1  0
 10 15  1  0
 15 16  1  0
  4 17  1  0
 17 18  1  0
 15 19  2  0
 15 20  2  0
 17 21  2  0
 17 22  2  0
  6 23  1  0
 12 24  1  0
 23 25  1  0
 24 26  1  0
 25 27  1  0
 25 28  2  0
 26 29  1  0
 26 30  2  0
 31 29  2  0
 32 31  1  0
 33 32  2  0
 34 33  1  0
 35 34  2  0
 29 35  1  0
 36 27  2  0
 37 36  1  0
 38 37  2  0
 39 38  1  0
 40 39  2  0
 27 40  1  0
M  CHG  4  16  -1  18  -1  41   1  42   1
M  END
> <From>
www.bindingDB.org

> <BindingDB Reactant_set_id>
51527513

> <Ligand InChI>
InChI=1S/C28H22N2O8S2.2Na/c31-27(21-7-3-1-4-8-21)29-23-15-13-19(25(17-23)39(33,34)35)11-12-20-14-16-24(18-26(20)40(36,37)38)30-28(32)22-9-5-2-6-10-22;;/h1-18H,(H,29,31)(H,30,32)(H,33,34,35)(H,36,37,38);;/q;2*+1/p-2/b12-11+;;

> <Ligand InChI Key>
MIWQBRZSGKYKER-YHPRVSEPSA-L

> <BindingDB MonomerID>
50614583

> <BindingDB Ligand Name>
CHEMBL5283877

> <Target Name>
DNA repair protein RAD51 homolog 1

> <Target Source Organism According to Curator or DataSource>
Homo sapiens

> <Ki (nM)>


> <IC50 (nM)>
>50000

> <Kd (nM)>


> <EC50 (nM)>


> <kon (M-1-s-1)>


> <koff (s-1)>


> <pH>


> <Temp C>


> <Curation/DataSource>
ChEMBL

> <Article DOI>


> <BindingDB Entry DOI>
10.7270/Q20G3QDN

> <PMID>
36990245

> <PubChem AID>


> <Patent Number>


> <Authors>
Demeyer, A; Fonteneau, L; Liennard, M; Foyer, C; Weigel, P; Laurent, AD; Lebreton, J; Fleury, F; Mathé-Allainmat, M

> <Date of publication>
5/1/2023

> <Date in BindingDB>
4/22/2024

> <Institution>
Nantes Universite

> <Link to Ligand in BindingDB>
http://www.bindingdb.org/bind/chemsearch/marvin/MolStructure.jsp?monomerid=50614583

> <Link to Ligand-Target Pair in BindingDB>
http://www.bindingdb.org/rwd/jsp/dbsearch/PrimarySearch_ki.jsp?energyterm=kJ/mole&tag=pol&polymerid=4676&target=DNA+repair+protein+RAD51+homolog+1&column=ki&startPg=0&Increment=50&submit=Search

> <Link to Ligand-Target Pair in BindingDB>
http://www.bindingdb.org/rwd/jsp/dbsearch/PrimarySearch_ki.jsp?energyterm=kJ/mole&tag=r21&monomerid=50614583&enzyme=DNA+repair+protein+RAD51+homolog+1&column=ki&startPg=0&Increment=50&submit=Search

> <Ligand HET ID in PDB>


> <PDB ID(s) for Ligand-Target Complex>


> <PubChem CID of Ligand>
5749144

> <PubChem SID of Ligand>
494504331

> <ChEBI ID of Ligand>


> <ChEMBL ID of Ligand>


> <DrugBank ID of Ligand>


> <IUPHAR_GRAC ID of Ligand>


> <KEGG ID of Ligand>


> <ZINC ID of Ligand>


> <Number of Protein Chains in Target (bigger than 1 implies a multichain complex)>
1

> <BindingDB Target Chain Sequence>
MAMQMQLEANADTSVEEESFGPQPISRLEQCGINANDVKKLEEAGFHTVEAVAYAPKKELINIKGISEAKADKILAEAAKLVPMGFTTATEFHQRRSEIIQITTGSKELDKLLQGGIETGSITEMFGEFRTGKTQICHTLAVTCQLPIDRGGGEGKAMYIDTEGTFRPERLLAVAERYGLSGSDVLDNVAYARAFNTDHQTQLLYQASAMMVESRYALLIVDSATALYRTDYSGRGELSARQMHLARFLRMLLRLADEFGVAVVITNQVVAQVDGAAMFAADPKKPIGGNIIAHASTTRLYLRKGRGETRICKIYDSPCLPEAEAMFAINADGVGDAKD

> <PDB ID(s) of Target Chain>


> <UniProt (SwissProt) Recommended Name of Target Chain>
DNA repair protein RAD51 homolog 1

> <UniProt (SwissProt) Entry Name of Target Chain>
RAD51_HUMAN

> <UniProt (SwissProt) Primary ID of Target Chain>
Q06609

> <UniProt (SwissProt) Secondary ID(s) of Target Chain>
B0FXP0 B2R8T6 Q6FHX9 Q6ZNA8 Q9BV60

> <UniProt (SwissProt) Alternative ID(s) of Target Chain>


> <UniProt (TrEMBL) Submitted Name of Target Chain>


> <UniProt (TrEMBL) Entry Name of Target Chain>


> <UniProt (TrEMBL) Primary ID of Target Chain>


> <UniProt (TrEMBL) Secondary ID(s) of Target Chain>


> <UniProt (TrEMBL) Alternative ID(s) of Target Chain>


$$$$

     RDKit          2D

 46 47  0  0  0  0  0  0  0  0999 V2000
   -2.4991   -0.2038    0.0000 C   0  0  0  0  0  0  0  0  0  0  0  0
   -1.7845    0.2084    0.0000 C   0  0  0  0  0  0  0  0  0  0  0  0
   -1.0727   -0.2034    0.0000 C   0  0  0  0  0  0  0  0  0  0  0  0
   -1.0727   -1.0286    0.0000 C   0  0  0  0  0  0  0  0  0  0  0  0
   -1.7827   -1.4404    0.0000 C   0  0  0  0  0  0  0  0  0  0  0  0
   -2.4991   -1.0323    0.0000 C   0  0  0  0  0  0  0  0  0  0  0  0
   -0.3580    0.2091    0.0000 C   0  0  0  0  0  0  0  0  0  0  0  0
    0.3565   -0.2034    0.0000 C   0  0  0  0  0  0  0  0  0  0  0  0
    1.0711    0.2091    0.0000 C   0  0  0  0  0  0  0  0  0  0  0  0
    1.0714    1.0344    0.0000 C   0  0  0  0  0  0  0  0  0  0  0  0
    1.7843    1.4451    0.0000 C   0  0  0  0  0  0  0  0  0  0  0  0
    2.4991    1.0323    0.0000 C   0  0  0  0  0  0  0  0  0  0  0  0
    2.5007    0.2112    0.0000 C   0  0  0  0  0  0  0  0  0  0  0  0
    1.7889   -0.2052    0.0000 C   0  0  0  0  0  0  0  0  0  0  0  0
    0.3568    1.4469    0.0000 S   0  0  0  0  0  0  0  0  0  0  0  0
   -0.3578    1.0344    0.0000 O   0  0  0  0  0  0  0  0  0  0  0  0
   -0.3580   -1.4412    0.0000 S   0  0  0  0  0  0  0  0  0  0  0  0
    0.3565   -1.0286    0.0000 O   0  0  0  0  0  0  0  0  0  0  0  0
    0.7701    2.1629    0.0000 O   0  0  0  0  0  0  0  0  0  0  0  0
   -0.0550    2.1629    0.0000 O   0  0  0  0  0  0  0  0  0  0  0  0
   -0.7714   -2.1571    0.0000 O   0  0  0  0  0  0  0  0  0  0  0  0
    0.0537   -2.1571    0.0000 O   0  0  0  0  0  0  0  0  0  0  0  0
   -3.2138   -1.4449    0.0000 N   0  0  0  0  0  0  0  0  0  0  0  0
    3.2138    1.4449    0.0000 N   0  0  0  0  0  0  0  0  0  0  0  0
   -3.9284   -1.0323    0.0000 C   0  0  0  0  0  0  0  0  0  0  0  0
    3.9284    1.0323    0.0000 C   0  0  0  0  0  0  0  0  0  0  0  0
   -4.6430   -1.4449    0.0000 C   0  0  0  0  0  0  0  0  0  0  0  0
   -3.9284   -0.2071    0.0000 O   0  0  0  0  0  0  0  0  0  0  0  0
    4.6430    1.4449    0.0000 C   0  0  0  0  0  0  0  0  0  0  0  0
    3.9284    0.2071    0.0000 O   0  0  0  0  0  0  0  0  0  0  0  0
    4.6432    2.2701    0.0000 C   0  0  0  0  0  0  0  0  0  0  0  0
    5.3561    2.6808    0.0000 C   0  0  0  0  0  0  0  0  0  0  0  0
    6.0709    2.2681    0.0000 C   0  0  0  0  0  0  0  0  0  0  0  0
    6.0726    1.4470    0.0000 C   0  0  0  0  0  0  0  0  0  0  0  0
    5.3608    1.0305    0.0000 C   0  0  0  0  0  0  0  0  0  0  0  0
   -4.6433   -2.2701    0.0000 C   0  0  0  0  0  0  0  0  0  0  0  0
   -5.3561   -2.6808    0.0000 C   0  0  0  0  0  0  0  0  0  0  0  0
   -6.0710   -2.2681    0.0000 C   0  0  0  0  0  0  0  0  0  0  0  0
   -6.0726   -1.4470    0.0000 C   0  0  0  0  0  0  0  0  0  0  0  0
   -5.3608   -1.0305    0.0000 C   0  0  0  0  0  0  0  0  0  0  0  0
   -6.7856   -2.6807    0.0000 O   0  0  0  0  0  0  0  0  0  0  0  0
   -7.5003   -2.2681    0.0000 C   0  0  0  0  0  0  0  0  0  0  0  0
    6.7856    2.6808    0.0000 O   0  0  0  0  0  0  0  0  0  0  0  0
    7.5003    2.2681    0.0000 C   0  0  0  0  0  0  0  0  0  0  0  0
    1.1766   -1.4867    0.0000 Na  0  0  0  0  0 15  0  0  0  0  0  0
   -1.4882    1.3165    0.0000 Na  0  0  0  0  0 15  0  0  0  0  0  0
  2  1  2  0
  3  2  1  0
  4  3  2  0
  5  4  1  0
  1  6  1  0
  6  5  2  0
  3  7  1  0
  7  8  2  0
  8  9  1  0
 10  9  2  0
 11 10  1  0
 12 11  2  0
 13 12  1  0
 14 13  2  0
  9 14  1  0
 10 15  1  0
 15 16  1  0
  4 17  1  0
 17 18  1  0
 15 19  2  0
 15 20  2  0
 17 21  2  0
 17 22  2  0
  6 23  1  0
 12 24  1  0
 23 25  1  0
 24 26  1  0
 25 27  1  0
 25 28  2  0
 26 29  1  0
 26 30  2  0
 31 29  2  0
 32 31  1  0
 33 32  2  0
 34 33  1  0
 35 34  2  0
 29 35  1  0
 36 27  2  0
 37 36  1  0
 38 37  2  0
 39 38  1  0
 40 39  2  0
 27 40  1  0
 38 41  1  0
 41 42  1  0
 33 43  1  0
 43 44  1  0
M  CHG  4  16  -1  18  -1  45   1  46   1
M  END
> <From>
www.bindingDB.org

> <BindingDB Reactant_set_id>
51527514

> <Ligand InChI>
InChI=1S/C30H26N2O10S2.2Na/c1-41-25-13-7-21(8-14-25)29(33)31-23-11-5-19(27(17-23)43(35,36)37)3-4-20-6-12-24(18-28(20)44(38,39)40)32-30(34)22-9-15-26(42-2)16-10-22;;/h3-18H,1-2H3,(H,31,33)(H,32,34)(H,35,36,37)(H,38,39,40);;/q;2*+1/p-2/b4-3+;;

> <Ligand InChI Key>
JAZBNZMFCHRNQP-CZEFNJPISA-L

> <BindingDB MonomerID>
50614584

> <BindingDB Ligand Name>
CHEMBL5277728

> <Target Name>
DNA repair protein RAD51 homolog 1

> <Target Source Organism According to Curator or DataSource>
Homo sapiens

> <Ki (nM)>


> <IC50 (nM)>
 3000

> <Kd (nM)>


> <EC50 (nM)>


> <kon (M-1-s-1)>


> <koff (s-1)>


> <pH>


> <Temp C>


> <Curation/DataSource>
ChEMBL

> <Article DOI>


> <BindingDB Entry DOI>
10.7270/Q20G3QDN

> <PMID>
36990245

> <PubChem AID>


> <Patent Number>


> <Authors>
Demeyer, A; Fonteneau, L; Liennard, M; Foyer, C; Weigel, P; Laurent, AD; Lebreton, J; Fleury, F; Mathé-Allainmat, M

> <Date of publication>
5/1/2023

> <Date in BindingDB>
4/22/2024

> <Institution>
Nantes Universite

> <Link to Ligand in BindingDB>
http://www.bindingdb.org/bind/chemsearch/marvin/MolStructure.jsp?monomerid=50614584

> <Link to Ligand-Target Pair in BindingDB>
http://www.bindingdb.org/rwd/jsp/dbsearch/PrimarySearch_ki.jsp?energyterm=kJ/mole&tag=pol&polymerid=4676&target=DNA+repair+protein+RAD51+homolog+1&column=ki&startPg=0&Increment=50&submit=Search

> <Link to Ligand-Target Pair in BindingDB>
http://www.bindingdb.org/rwd/jsp/dbsearch/PrimarySearch_ki.jsp?energyterm=kJ/mole&tag=r21&monomerid=50614584&enzyme=DNA+repair+protein+RAD51+homolog+1&column=ki&startPg=0&Increment=50&submit=Search

> <Ligand HET ID in PDB>


> <PDB ID(s) for Ligand-Target Complex>


> <PubChem CID of Ligand>
5893300

> <PubChem SID of Ligand>
494504332

> <ChEBI ID of Ligand>


> <ChEMBL ID of Ligand>


> <DrugBank ID of Ligand>


> <IUPHAR_GRAC ID of Ligand>


> <KEGG ID of Ligand>


> <ZINC ID of Ligand>


> <Number of Protein Chains in Target (bigger than 1 implies a multichain complex)>
1

> <BindingDB Target Chain Sequence>
MAMQMQLEANADTSVEEESFGPQPISRLEQCGINANDVKKLEEAGFHTVEAVAYAPKKELINIKGISEAKADKILAEAAKLVPMGFTTATEFHQRRSEIIQITTGSKELDKLLQGGIETGSITEMFGEFRTGKTQICHTLAVTCQLPIDRGGGEGKAMYIDTEGTFRPERLLAVAERYGLSGSDVLDNVAYARAFNTDHQTQLLYQASAMMVESRYALLIVDSATALYRTDYSGRGELSARQMHLARFLRMLLRLADEFGVAVVITNQVVAQVDGAAMFAADPKKPIGGNIIAHASTTRLYLRKGRGETRICKIYDSPCLPEAEAMFAINADGVGDAKD

> <PDB ID(s) of Target Chain>


> <UniProt (SwissProt) Recommended Name of Target Chain>
DNA repair protein RAD51 homolog 1

> <UniProt (SwissProt) Entry Name of Target Chain>
RAD51_HUMAN

> <UniProt (SwissProt) Primary ID of Target Chain>
Q06609

> <UniProt (SwissProt) Secondary ID(s) of Target Chain>
B0FXP0 B2R8T6 Q6FHX9 Q6ZNA8 Q9BV60

> <UniProt (SwissProt) Alternative ID(s) of Target Chain>


> <UniProt (TrEMBL) Submitted Name of Target Chain>


> <UniProt (TrEMBL) Entry Name of Target Chain>


> <UniProt (TrEMBL) Primary ID of Target Chain>


> <UniProt (TrEMBL) Secondary ID(s) of Target Chain>


> <UniProt (TrEMBL) Alternative ID(s) of Target Chain>


$$$$

     RDKit          2D

 36 35  0  0  0  0  0  0  0  0999 V2000
   -2.4991   -0.2067    0.0000 C   0  0  0  0  0  0  0  0  0  0  0  0
   -1.7845    0.2055    0.0000 C   0  0  0  0  0  0  0  0  0  0  0  0
   -1.0726   -0.2062    0.0000 C   0  0  0  0  0  0  0  0  0  0  0  0
   -1.0726   -1.0315    0.0000 C   0  0  0  0  0  0  0  0  0  0  0  0
   -1.7827   -1.4433    0.0000 C   0  0  0  0  0  0  0  0  0  0  0  0
   -2.4991   -1.0352    0.0000 C   0  0  0  0  0  0  0  0  0  0  0  0
   -3.2137   -1.4477    0.0000 N   0  0  0  0  0  0  0  0  0  0  0  0
   -0.3580   -1.4440    0.0000 S   0  0  0  0  0  0  0  0  0  0  0  0
    0.3566   -1.0315    0.0000 O   0  0  0  0  0  0  0  0  0  0  0  0
   -0.7713   -2.1600    0.0000 O   0  0  0  0  0  0  0  0  0  0  0  0
    0.0537   -2.1600    0.0000 O   0  0  0  0  0  0  0  0  0  0  0  0
   -0.3580    0.2062    0.0000 C   0  0  0  0  0  0  0  0  0  0  0  0
    0.3566   -0.2062    0.0000 C   0  0  0  0  0  0  0  0  0  0  0  0
    1.0712    0.2062    0.0000 C   0  0  0  0  0  0  0  0  0  0  0  0
    1.0714    1.0315    0.0000 C   0  0  0  0  0  0  0  0  0  0  0  0
    1.7843    1.4422    0.0000 C   0  0  0  0  0  0  0  0  0  0  0  0
    2.4992    1.0294    0.0000 C   0  0  0  0  0  0  0  0  0  0  0  0
    2.5007    0.2083    0.0000 C   0  0  0  0  0  0  0  0  0  0  0  0
    1.7889   -0.2081    0.0000 C   0  0  0  0  0  0  0  0  0  0  0  0
    3.2137    1.4421    0.0000 N   0  0  0  0  0  0  0  0  0  0  0  0
    0.3568    1.4441    0.0000 S   0  0  0  0  0  0  0  0  0  0  0  0
   -0.3578    1.0315    0.0000 O   0  0  0  0  0  0  0  0  0  0  0  0
    0.7701    2.1600    0.0000 O   0  0  0  0  0  0  0  0  0  0  0  0
   -0.0549    2.1600    0.0000 O   0  0  0  0  0  0  0  0  0  0  0  0
   -3.9284   -1.0352    0.0000 C   0  0  0  0  0  0  0  0  0  0  0  0
   -4.6430   -1.4477    0.0000 O   0  0  0  0  0  0  0  0  0  0  0  0
   -3.9284   -0.2099    0.0000 O   0  0  0  0  0  0  0  0  0  0  0  0
   -5.3576   -1.0352    0.0000 C   0  0  0  0  0  0  0  0  0  0  0  0
   -6.0723   -1.4477    0.0000 C   0  0  0  0  0  0  0  0  0  0  0  0
    3.9284    1.0294    0.0000 C   0  0  0  0  0  0  0  0  0  0  0  0
    4.6431    1.4421    0.0000 O   0  0  0  0  0  0  0  0  0  0  0  0
    5.3576    1.0294    0.0000 C   0  0  0  0  0  0  0  0  0  0  0  0
    6.0723    1.4420    0.0000 C   0  0  0  0  0  0  0  0  0  0  0  0
    3.9284    0.2043    0.0000 O   0  0  0  0  0  0  0  0  0  0  0  0
   -1.4189    1.3481    0.0000 Na  0  0  0  0  0 15  0  0  0  0  0  0
    1.2112   -1.4551    0.0000 Na  0  0  0  0  0 15  0  0  0  0  0  0
  2  1  2  0
  3  2  1  0
  4  3  2  0
  5  4  1  0
  6  5  2  0
  1  6  1  0
  6  7  1  0
  4  8  1  0
  8  9  1  0
  8 10  2  0
  8 11  2  0
  3 12  1  0
 12 13  2  0
 13 14  1  0
 15 14  2  0
 16 15  1  0
 17 16  2  0
 18 17  1  0
 19 18  2  0
 14 19  1  0
 17 20  1  0
 15 21  1  0
 21 22  1  0
 21 23  2  0
 21 24  2  0
  7 25  1  0
 25 26  1  0
 25 27  2  0
 26 28  1  0
 28 29  1  0
 20 30  1  0
 30 31  1  0
 31 32  1  0
 32 33  1  0
 30 34  2  0
M  CHG  4   9  -1  22  -1  35   1  36   1
M  END
> <From>
www.bindingDB.org

> <BindingDB Reactant_set_id>
51527515

> <Ligand InChI>
InChI=1S/C20H22N2O10S2.2Na/c1-3-31-19(23)21-15-9-7-13(17(11-15)33(25,26)27)5-6-14-8-10-16(22-20(24)32-4-2)12-18(14)34(28,29)30;;/h5-12H,3-4H2,1-2H3,(H,21,23)(H,22,24)(H,25,26,27)(H,28,29,30);;/q;2*+1/p-2/b6-5+;;

> <Ligand InChI Key>
SBCWRFKTDBHIPU-TXOOBNKBSA-L

> <BindingDB MonomerID>
50614585

> <BindingDB Ligand Name>
CHEMBL5275181

> <Target Name>
DNA repair protein RAD51 homolog 1

> <Target Source Organism According to Curator or DataSource>
Homo sapiens

> <Ki (nM)>


> <IC50 (nM)>
>50000

> <Kd (nM)>


> <EC50 (nM)>


> <kon (M-1-s-1)>


> <koff (s-1)>


> <pH>


> <Temp C>


> <Curation/DataSource>
ChEMBL

> <Article DOI>


> <BindingDB Entry DOI>
10.7270/Q20G3QDN

> <PMID>
36990245

> <PubChem AID>


> <Patent Number>


> <Authors>
Demeyer, A; Fonteneau, L; Liennard, M; Foyer, C; Weigel, P; Laurent, AD; Lebreton, J; Fleury, F; Mathé-Allainmat, M

> <Date of publication>
5/1/2023

> <Date in BindingDB>
4/22/2024

> <Institution>
Nantes Universite

> <Link to Ligand in BindingDB>
http://www.bindingdb.org/bind/chemsearch/marvin/MolStructure.jsp?monomerid=50614585

> <Link to Ligand-Target Pair in BindingDB>
http://www.bindingdb.org/rwd/jsp/dbsearch/PrimarySearch_ki.jsp?energyterm=kJ/mole&tag=pol&polymerid=4676&target=DNA+repair+protein+RAD51+homolog+1&column=ki&startPg=0&Increment=50&submit=Search

> <Link to Ligand-Target Pair in BindingDB>
http://www.bindingdb.org/rwd/jsp/dbsearch/PrimarySearch_ki.jsp?energyterm=kJ/mole&tag=r21&monomerid=50614585&enzyme=DNA+repair+protein+RAD51+homolog+1&column=ki&startPg=0&Increment=50&submit=Search

> <Ligand HET ID in PDB>


> <PDB ID(s) for Ligand-Target Complex>


> <PubChem CID of Ligand>
172676068

> <PubChem SID of Ligand>
494504333

> <ChEBI ID of Ligand>


> <ChEMBL ID of Ligand>


> <DrugBank ID of Ligand>


> <IUPHAR_GRAC ID of Ligand>


> <KEGG ID of Ligand>


> <ZINC ID of Ligand>


> <Number of Protein Chains in Target (bigger than 1 implies a multichain complex)>
1

> <BindingDB Target Chain Sequence>
MAMQMQLEANADTSVEEESFGPQPISRLEQCGINANDVKKLEEAGFHTVEAVAYAPKKELINIKGISEAKADKILAEAAKLVPMGFTTATEFHQRRSEIIQITTGSKELDKLLQGGIETGSITEMFGEFRTGKTQICHTLAVTCQLPIDRGGGEGKAMYIDTEGTFRPERLLAVAERYGLSGSDVLDNVAYARAFNTDHQTQLLYQASAMMVESRYALLIVDSATALYRTDYSGRGELSARQMHLARFLRMLLRLADEFGVAVVITNQVVAQVDGAAMFAADPKKPIGGNIIAHASTTRLYLRKGRGETRICKIYDSPCLPEAEAMFAINADGVGDAKD

> <PDB ID(s) of Target Chain>


> <UniProt (SwissProt) Recommended Name of Target Chain>
DNA repair protein RAD51 homolog 1

> <UniProt (SwissProt) Entry Name of Target Chain>
RAD51_HUMAN

> <UniProt (SwissProt) Primary ID of Target Chain>
Q06609

> <UniProt (SwissProt) Secondary ID(s) of Target Chain>
B0FXP0 B2R8T6 Q6FHX9 Q6ZNA8 Q9BV60

> <UniProt (SwissProt) Alternative ID(s) of Target Chain>


> <UniProt (TrEMBL) Submitted Name of Target Chain>


> <UniProt (TrEMBL) Entry Name of Target Chain>


> <UniProt (TrEMBL) Primary ID of Target Chain>


> <UniProt (TrEMBL) Secondary ID(s) of Target Chain>


> <UniProt (TrEMBL) Alternative ID(s) of Target Chain>


$$$$

     RDKit          2D

 44 45  0  0  0  0  0  0  0  0999 V2000
   -2.4991   -0.2067    0.0000 C   0  0  0  0  0  0  0  0  0  0  0  0
   -1.7845    0.2055    0.0000 C   0  0  0  0  0  0  0  0  0  0  0  0
   -1.0727   -0.2063    0.0000 C   0  0  0  0  0  0  0  0  0  0  0  0
   -1.0727   -1.0315    0.0000 C   0  0  0  0  0  0  0  0  0  0  0  0
   -1.7827   -1.4433    0.0000 C   0  0  0  0  0  0  0  0  0  0  0  0
   -2.4991   -1.0352    0.0000 C   0  0  0  0  0  0  0  0  0  0  0  0
   -3.2138   -1.4477    0.0000 N   0  0  0  0  0  0  0  0  0  0  0  0
   -0.3580   -1.4440    0.0000 S   0  0  0  0  0  0  0  0  0  0  0  0
    0.3565   -1.0315    0.0000 O   0  0  0  0  0  0  0  0  0  0  0  0
   -0.7714   -2.1600    0.0000 O   0  0  0  0  0  0  0  0  0  0  0  0
    0.0537   -2.1600    0.0000 O   0  0  0  0  0  0  0  0  0  0  0  0
   -0.3580    0.2062    0.0000 C   0  0  0  0  0  0  0  0  0  0  0  0
    0.3565   -0.2063    0.0000 C   0  0  0  0  0  0  0  0  0  0  0  0
    1.0711    0.2062    0.0000 C   0  0  0  0  0  0  0  0  0  0  0  0
    1.0714    1.0315    0.0000 C   0  0  0  0  0  0  0  0  0  0  0  0
    1.7843    1.4422    0.0000 C   0  0  0  0  0  0  0  0  0  0  0  0
    2.4991    1.0294    0.0000 C   0  0  0  0  0  0  0  0  0  0  0  0
    2.5007    0.2083    0.0000 C   0  0  0  0  0  0  0  0  0  0  0  0
    1.7889   -0.2081    0.0000 C   0  0  0  0  0  0  0  0  0  0  0  0
    3.2137    1.4420    0.0000 N   0  0  0  0  0  0  0  0  0  0  0  0
    0.3568    1.4440    0.0000 S   0  0  0  0  0  0  0  0  0  0  0  0
   -0.3578    1.0315    0.0000 O   0  0  0  0  0  0  0  0  0  0  0  0
    0.7701    2.1600    0.0000 O   0  0  0  0  0  0  0  0  0  0  0  0
   -0.0550    2.1600    0.0000 O   0  0  0  0  0  0  0  0  0  0  0  0
   -3.9284   -1.0352    0.0000 C   0  0  0  0  0  0  0  0  0  0  0  0
   -4.6430   -1.4477    0.0000 O   0  0  0  0  0  0  0  0  0  0  0  0
   -3.9284   -0.2100    0.0000 O   0  0  0  0  0  0  0  0  0  0  0  0
   -5.3577   -1.0352    0.0000 C   0  0  0  0  0  0  0  0  0  0  0  0
    3.9284    1.0294    0.0000 C   0  0  0  0  0  0  0  0  0  0  0  0
    4.6430    1.4420    0.0000 O   0  0  0  0  0  0  0  0  0  0  0  0
    5.3576    1.0294    0.0000 C   0  0  0  0  0  0  0  0  0  0  0  0
    3.9284    0.2042    0.0000 O   0  0  0  0  0  0  0  0  0  0  0  0
   -6.0725   -1.4476    0.0000 C   0  0  0  0  0  0  0  0  0  0  0  0
   -6.7846   -1.0356    0.0000 C   0  0  0  0  0  0  0  0  0  0  0  0
   -6.7846   -0.2101    0.0000 C   0  0  0  0  0  0  0  0  0  0  0  0
   -6.0743    0.2017    0.0000 C   0  0  0  0  0  0  0  0  0  0  0  0
   -5.3577   -0.2064    0.0000 C   0  0  0  0  0  0  0  0  0  0  0  0
    6.0725    1.4419    0.0000 C   0  0  0  0  0  0  0  0  0  0  0  0
    6.7846    1.0299    0.0000 C   0  0  0  0  0  0  0  0  0  0  0  0
    6.7846    0.2044    0.0000 C   0  0  0  0  0  0  0  0  0  0  0  0
    6.0742   -0.2074    0.0000 C   0  0  0  0  0  0  0  0  0  0  0  0
    5.3576    0.2007    0.0000 C   0  0  0  0  0  0  0  0  0  0  0  0
    0.9689   -1.3164    0.0000 Na  0  0  0  0  0 15  0  0  0  0  0  0
   -1.2805    1.2446    0.0000 Na  0  0  0  0  0 15  0  0  0  0  0  0
  2  1  2  0
  3  2  1  0
  4  3  2  0
  5  4  1  0
  6  5  2  0
  1  6  1  0
  6  7  1  0
  4  8  1  0
  8  9  1  0
  8 10  2  0
  8 11  2  0
  3 12  1  0
 12 13  2  0
 13 14  1  0
 15 14  2  0
 16 15  1  0
 17 16  2  0
 18 17  1  0
 19 18  2  0
 14 19  1  0
 17 20  1  0
 15 21  1  0
 21 22  1  0
 21 23  2  0
 21 24  2  0
  7 25  1  0
 25 26  1  0
 25 27  2  0
 26 28  1  0
 20 29  1  0
 29 30  1  0
 30 31  1  0
 29 32  2  0
 33 28  2  0
 34 33  1  0
 35 34  2  0
 36 35  1  0
 37 36  2  0
 28 37  1  0
 38 31  2  0
 39 38  1  0
 40 39  2  0
 41 40  1  0
 42 41  2  0
 31 42  1  0
M  CHG  4   9  -1  22  -1  43   1  44   1
M  END
> <From>
www.bindingDB.org

> <BindingDB Reactant_set_id>
51527516

> <Ligand InChI>
InChI=1S/C28H22N2O10S2.2Na/c31-27(39-23-7-3-1-4-8-23)29-21-15-13-19(25(17-21)41(33,34)35)11-12-20-14-16-22(18-26(20)42(36,37)38)30-28(32)40-24-9-5-2-6-10-24;;/h1-18H,(H,29,31)(H,30,32)(H,33,34,35)(H,36,37,38);;/q;2*+1/p-2/b12-11+;;

> <Ligand InChI Key>
VDEWJBLWKZNDQM-YHPRVSEPSA-L

> <BindingDB MonomerID>
50614586

> <BindingDB Ligand Name>
CHEMBL5287027

> <Target Name>
DNA repair protein RAD51 homolog 1

> <Target Source Organism According to Curator or DataSource>
Homo sapiens

> <Ki (nM)>


> <IC50 (nM)>
 3800

> <Kd (nM)>


> <EC50 (nM)>


> <kon (M-1-s-1)>


> <koff (s-1)>


> <pH>


> <Temp C>


> <Curation/DataSource>
ChEMBL

> <Article DOI>


> <BindingDB Entry DOI>
10.7270/Q20G3QDN

> <PMID>
36990245

> <PubChem AID>


> <Patent Number>


> <Authors>
Demeyer, A; Fonteneau, L; Liennard, M; Foyer, C; Weigel, P; Laurent, AD; Lebreton, J; Fleury, F; Mathé-Allainmat, M

> <Date of publication>
5/1/2023

> <Date in BindingDB>
4/22/2024

> <Institution>
Nantes Universite

> <Link to Ligand in BindingDB>
http://www.bindingdb.org/bind/chemsearch/marvin/MolStructure.jsp?monomerid=50614586

> <Link to Ligand-Target Pair in BindingDB>
http://www.bindingdb.org/rwd/jsp/dbsearch/PrimarySearch_ki.jsp?energyterm=kJ/mole&tag=pol&polymerid=4676&target=DNA+repair+protein+RAD51+homolog+1&column=ki&startPg=0&Increment=50&submit=Search

> <Link to Ligand-Target Pair in BindingDB>
http://www.bindingdb.org/rwd/jsp/dbsearch/PrimarySearch_ki.jsp?energyterm=kJ/mole&tag=r21&monomerid=50614586&enzyme=DNA+repair+protein+RAD51+homolog+1&column=ki&startPg=0&Increment=50&submit=Search

> <Ligand HET ID in PDB>


> <PDB ID(s) for Ligand-Target Complex>


> <PubChem CID of Ligand>
172676170

> <PubChem SID of Ligand>
494504334

> <ChEBI ID of Ligand>


> <ChEMBL ID of Ligand>


> <DrugBank ID of Ligand>


> <IUPHAR_GRAC ID of Ligand>


> <KEGG ID of Ligand>


> <ZINC ID of Ligand>


> <Number of Protein Chains in Target (bigger than 1 implies a multichain complex)>
1

> <BindingDB Target Chain Sequence>
MAMQMQLEANADTSVEEESFGPQPISRLEQCGINANDVKKLEEAGFHTVEAVAYAPKKELINIKGISEAKADKILAEAAKLVPMGFTTATEFHQRRSEIIQITTGSKELDKLLQGGIETGSITEMFGEFRTGKTQICHTLAVTCQLPIDRGGGEGKAMYIDTEGTFRPERLLAVAERYGLSGSDVLDNVAYARAFNTDHQTQLLYQASAMMVESRYALLIVDSATALYRTDYSGRGELSARQMHLARFLRMLLRLADEFGVAVVITNQVVAQVDGAAMFAADPKKPIGGNIIAHASTTRLYLRKGRGETRICKIYDSPCLPEAEAMFAINADGVGDAKD

> <PDB ID(s) of Target Chain>


> <UniProt (SwissProt) Recommended Name of Target Chain>
DNA repair protein RAD51 homolog 1

> <UniProt (SwissProt) Entry Name of Target Chain>
RAD51_HUMAN

> <UniProt (SwissProt) Primary ID of Target Chain>
Q06609

> <UniProt (SwissProt) Secondary ID(s) of Target Chain>
B0FXP0 B2R8T6 Q6FHX9 Q6ZNA8 Q9BV60

> <UniProt (SwissProt) Alternative ID(s) of Target Chain>


> <UniProt (TrEMBL) Submitted Name of Target Chain>


> <UniProt (TrEMBL) Entry Name of Target Chain>


> <UniProt (TrEMBL) Primary ID of Target Chain>


> <UniProt (TrEMBL) Secondary ID(s) of Target Chain>


> <UniProt (TrEMBL) Alternative ID(s) of Target Chain>


$$$$

  Mrv0541 11211411572D          

 28 29  0  0  0  0            999 V2000
    5.0267   -6.7467    0.0000 S   0  0  0  0  0  0  0  0  0  0  0  0
    4.3271   -9.6370    0.0000 S   0  0  0  0  0  0  0  0  0  0  0  0
    3.6107   -9.2247    0.0000 C   0  0  0  0  0  0  0  0  0  0  0  0
    5.7389   -7.1507    0.0000 C   0  0  0  0  0  0  0  0  0  0  0  0
    0.7538   -9.2247    0.0000 C   0  0  0  0  0  0  0  0  0  0  0  0
    8.6000   -7.1382    0.0000 C   0  0  0  0  0  0  0  0  0  0  0  0
    5.0392   -8.3876    0.0000 C   0  0  0  0  0  0  0  0  0  0  0  0
    4.3229   -7.9753    0.0000 C   0  0  0  0  0  0  0  0  0  0  0  0
    4.3104   -6.3344    0.0000 O   0  5  0  0  0  0  0  0  0  0  0  0
    5.0392  -10.0493    0.0000 O   0  5  0  0  0  0  0  0  0  0  0  0
    6.4510   -6.7384    0.0000 C   0  0  0  0  0  0  0  0  0  0  0  0
    2.8903   -9.6370    0.0000 C   0  0  0  0  0  0  0  0  0  0  0  0
    3.6107   -8.3959    0.0000 C   0  0  0  0  0  0  0  0  0  0  0  0
    5.7514   -7.9753    0.0000 C   0  0  0  0  0  0  0  0  0  0  0  0
    4.3146   -7.1632    0.0000 O   0  0  0  0  0  0  0  0  0  0  0  0
    4.3271  -10.4616    0.0000 O   0  0  0  0  0  0  0  0  0  0  0  0
    5.0392   -9.2205    0.0000 O   0  0  0  0  0  0  0  0  0  0  0  0
    5.0142   -5.9221    0.0000 O   0  0  0  0  0  0  0  0  0  0  0  0
    1.4660   -9.6370    0.0000 N   0  0  0  0  0  0  0  0  0  0  0  0
    7.8878   -6.7259    0.0000 N   0  0  0  0  0  0  0  0  0  0  0  0
    9.3121   -6.7259    0.0000 S   0  0  0  0  0  0  0  0  0  0  0  0
    0.0375   -9.6370    0.0000 S   0  0  0  0  0  0  0  0  0  0  0  0
    2.1781   -9.2247    0.0000 C   0  0  0  0  0  0  0  0  0  0  0  0
    7.1757   -7.1465    0.0000 C   0  0  0  0  0  0  0  0  0  0  0  0
    6.4635   -8.3876    0.0000 C   0  0  0  0  0  0  0  0  0  0  0  0
    2.8903   -7.9836    0.0000 C   0  0  0  0  0  0  0  0  0  0  0  0
    7.1757   -7.9711    0.0000 C   0  0  0  0  0  0  0  0  0  0  0  0
    2.1781   -8.3959    0.0000 C   0  0  0  0  0  0  0  0  0  0  0  0
  2  3  1  0  0  0  0
  3 13  2  0  0  0  0
  4  1  1  0  0  0  0
  5 19  2  0  0  0  0
  6 20  2  0  0  0  0
  7 14  1  0  0  0  0
  8  7  2  0  0  0  0
  9  1  1  0  0  0  0
 10  2  1  0  0  0  0
 11  4  2  0  0  0  0
 12  3  1  0  0  0  0
 13  8  1  0  0  0  0
 14  4  1  0  0  0  0
 15  1  2  0  0  0  0
 16  2  2  0  0  0  0
 17  2  2  0  0  0  0
 18  1  2  0  0  0  0
 19 23  1  0  0  0  0
 20 24  1  0  0  0  0
 21  6  2  0  0  0  0
 22  5  2  0  0  0  0
 23 28  1  0  0  0  0
 24 11  1  0  0  0  0
 25 14  2  0  0  0  0
 26 13  1  0  0  0  0
 27 25  1  0  0  0  0
 28 26  2  0  0  0  0
 27 24  2  0  0  0  0
 23 12  2  0  0  0  0
M  CHG  2   9  -1  10  -1
M  END
> <From>
www.bindingDB.org

> <BindingDB Reactant_set_id>
51527517

> <Ligand InChI>
InChI=1S/C16H10N2O6S4/c19-27(20,21)15-7-13(17-9-25)5-3-11(15)1-2-12-4-6-14(18-10-26)8-16(12)28(22,23)24/h1-8H,(H,19,20,21)(H,22,23,24)/p-2/b2-1+

> <Ligand InChI Key>
YSCNMFDFYJUPEF-OWOJBTEDSA-L

> <BindingDB MonomerID>
50118214

> <BindingDB Ligand Name>
CHEMBL133930::DIDS

> <Target Name>
DNA repair protein RAD51 homolog 1

> <Target Source Organism According to Curator or DataSource>
Homo sapiens

> <Ki (nM)>


> <IC50 (nM)>
 900

> <Kd (nM)>


> <EC50 (nM)>


> <kon (M-1-s-1)>


> <koff (s-1)>


> <pH>


> <Temp C>


> <Curation/DataSource>
ChEMBL

> <Article DOI>


> <BindingDB Entry DOI>
10.7270/Q20G3QDN

> <PMID>
36990245

> <PubChem AID>


> <Patent Number>


> <Authors>
Demeyer, A; Fonteneau, L; Liennard, M; Foyer, C; Weigel, P; Laurent, AD; Lebreton, J; Fleury, F; Mathé-Allainmat, M

> <Date of publication>
5/1/2023

> <Date in BindingDB>
4/22/2024

> <Institution>
Nantes Universite

> <Link to Ligand in BindingDB>
http://www.bindingdb.org/bind/chemsearch/marvin/MolStructure.jsp?monomerid=50118214

> <Link to Ligand-Target Pair in BindingDB>
http://www.bindingdb.org/jsp/dbsearch/PrimarySearch_ki.jsp?energyterm=kJ/mole&tag=pol&polymerid=4676&target=DNA+repair+protein+RAD51+homolog+1&column=ki&startPg=0&Increment=50&submit=Search

> <Link to Ligand-Target Pair in BindingDB>
http://www.bindingdb.org/jsp/dbsearch/PrimarySearch_ki.jsp?energyterm=kJ/mole&tag=r21&monomerid=50118214&enzyme=DNA+repair+protein+RAD51+homolog+1&column=ki&startPg=0&Increment=50&submit=Search

> <Ligand HET ID in PDB>


> <PDB ID(s) for Ligand-Target Complex>


> <PubChem CID of Ligand>
6146472

> <PubChem SID of Ligand>
104011551

> <ChEBI ID of Ligand>


> <ChEMBL ID of Ligand>
CHEMBL133930

> <DrugBank ID of Ligand>


> <IUPHAR_GRAC ID of Ligand>


> <KEGG ID of Ligand>
C11591

> <ZINC ID of Ligand>
ZINC06844860

> <Number of Protein Chains in Target (bigger than 1 implies a multichain complex)>
1

> <BindingDB Target Chain Sequence>
MAMQMQLEANADTSVEEESFGPQPISRLEQCGINANDVKKLEEAGFHTVEAVAYAPKKELINIKGISEAKADKILAEAAKLVPMGFTTATEFHQRRSEIIQITTGSKELDKLLQGGIETGSITEMFGEFRTGKTQICHTLAVTCQLPIDRGGGEGKAMYIDTEGTFRPERLLAVAERYGLSGSDVLDNVAYARAFNTDHQTQLLYQASAMMVESRYALLIVDSATALYRTDYSGRGELSARQMHLARFLRMLLRLADEFGVAVVITNQVVAQVDGAAMFAADPKKPIGGNIIAHASTTRLYLRKGRGETRICKIYDSPCLPEAEAMFAINADGVGDAKD

> <PDB ID(s) of Target Chain>
1N0W,5JZC,5NP7,5NWL,8BQ2,8BR2,8BSC,8GYK,8PBC,8PBD

> <UniProt (SwissProt) Recommended Name of Target Chain>
DNA repair protein RAD51 homolog 1

> <UniProt (SwissProt) Entry Name of Target Chain>
RAD51_HUMAN

> <UniProt (SwissProt) Primary ID of Target Chain>
Q06609

> <UniProt (SwissProt) Secondary ID(s) of Target Chain>
B0FXP0 B2R8T6 Q6FHX9 Q6ZNA8 Q9BV60

> <UniProt (SwissProt) Alternative ID(s) of Target Chain>


> <UniProt (TrEMBL) Submitted Name of Target Chain>


> <UniProt (TrEMBL) Entry Name of Target Chain>


> <UniProt (TrEMBL) Primary ID of Target Chain>


> <UniProt (TrEMBL) Secondary ID(s) of Target Chain>


> <UniProt (TrEMBL) Alternative ID(s) of Target Chain>


$$$$

     RDKit          2D

 28 27  0  0  0  0  0  0  0  0999 V2000
   -2.4991   -0.2067    0.0000 C   0  0  0  0  0  0  0  0  0  0  0  0
   -1.7845    0.2055    0.0000 C   0  0  0  0  0  0  0  0  0  0  0  0
   -1.0727   -0.2062    0.0000 C   0  0  0  0  0  0  0  0  0  0  0  0
   -1.0727   -1.0315    0.0000 C   0  0  0  0  0  0  0  0  0  0  0  0
   -1.7827   -1.4433    0.0000 C   0  0  0  0  0  0  0  0  0  0  0  0
   -2.4991   -1.0352    0.0000 C   0  0  0  0  0  0  0  0  0  0  0  0
   -0.3580    0.2062    0.0000 C   0  0  0  0  0  0  0  0  0  0  0  0
    0.3565   -0.2062    0.0000 C   0  0  0  0  0  0  0  0  0  0  0  0
    1.0711    0.2062    0.0000 C   0  0  0  0  0  0  0  0  0  0  0  0
    1.0714    1.0315    0.0000 C   0  0  0  0  0  0  0  0  0  0  0  0
    1.7843    1.4422    0.0000 C   0  0  0  0  0  0  0  0  0  0  0  0
    2.4991    1.0294    0.0000 C   0  0  0  0  0  0  0  0  0  0  0  0
    2.5007    0.2083    0.0000 C   0  0  0  0  0  0  0  0  0  0  0  0
    1.7889   -0.2081    0.0000 C   0  0  0  0  0  0  0  0  0  0  0  0
    0.3568    1.4441    0.0000 S   0  0  0  0  0  0  0  0  0  0  0  0
   -0.3578    1.0315    0.0000 O   0  0  0  0  0  0  0  0  0  0  0  0
   -0.3580   -1.4440    0.0000 S   0  0  0  0  0  0  0  0  0  0  0  0
    0.3565   -1.0315    0.0000 O   0  0  0  0  0  0  0  0  0  0  0  0
    0.7701    2.1600    0.0000 O   0  0  0  0  0  0  0  0  0  0  0  0
   -0.0550    2.1600    0.0000 O   0  0  0  0  0  0  0  0  0  0  0  0
   -0.7714   -2.1600    0.0000 O   0  0  0  0  0  0  0  0  0  0  0  0
    0.0537   -2.1600    0.0000 O   0  0  0  0  0  0  0  0  0  0  0  0
   -3.2138   -1.4477    0.0000 C   0  0  0  0  0  0  0  0  0  0  0  0
   -3.9284   -1.8603    0.0000 N   0  0  0  0  0  0  0  0  0  0  0  0
    3.2138    1.4421    0.0000 C   0  0  0  0  0  0  0  0  0  0  0  0
    3.9284    1.8547    0.0000 N   0  0  0  0  0  0  0  0  0  0  0  0
    1.0381   -1.4885    0.0000 Na  0  0  0  0  0 15  0  0  0  0  0  0
   -1.2805    1.5224    0.0000 Na  0  0  0  0  0 15  0  0  0  0  0  0
  2  1  2  0
  3  2  1  0
  4  3  2  0
  5  4  1  0
  1  6  1  0
  6  5  2  0
  3  7  1  0
  7  8  2  0
  8  9  1  0
 10  9  2  0
 11 10  1  0
 12 11  2  0
 13 12  1  0
 14 13  2  0
  9 14  1  0
 10 15  1  0
 15 16  1  0
  4 17  1  0
 17 18  1  0
 15 19  2  0
 15 20  2  0
 17 21  2  0
 17 22  2  0
 23  6  1  0
 23 24  3  0
 25 12  1  0
 25 26  3  0
M  CHG  4  16  -1  18  -1  27   1  28   1
M  END
> <From>
www.bindingDB.org

> <BindingDB Reactant_set_id>
51527518

> <Ligand InChI>
InChI=1S/C16H10N2O6S2.2Na/c17-9-11-1-3-13(15(7-11)25(19,20)21)5-6-14-4-2-12(10-18)8-16(14)26(22,23)24;;/h1-8H,(H,19,20,21)(H,22,23,24);;/q;2*+1/p-2/b6-5+;;

> <Ligand InChI Key>
FECUKAQKBJOSJW-TXOOBNKBSA-L

> <BindingDB MonomerID>
50614578

> <BindingDB Ligand Name>
CHEMBL5280045

> <Target Name>
DNA repair protein RAD51 homolog 1

> <Target Source Organism According to Curator or DataSource>
Homo sapiens

> <Ki (nM)>


> <IC50 (nM)>
 4900

> <Kd (nM)>


> <EC50 (nM)>


> <kon (M-1-s-1)>


> <koff (s-1)>


> <pH>


> <Temp C>


> <Curation/DataSource>
ChEMBL

> <Article DOI>


> <BindingDB Entry DOI>
10.7270/Q20G3QDN

> <PMID>
36990245

> <PubChem AID>


> <Patent Number>


> <Authors>
Demeyer, A; Fonteneau, L; Liennard, M; Foyer, C; Weigel, P; Laurent, AD; Lebreton, J; Fleury, F; Mathé-Allainmat, M

> <Date of publication>
5/1/2023

> <Date in BindingDB>
4/22/2024

> <Institution>
Nantes Universite

> <Link to Ligand in BindingDB>
http://www.bindingdb.org/bind/chemsearch/marvin/MolStructure.jsp?monomerid=50614578

> <Link to Ligand-Target Pair in BindingDB>
http://www.bindingdb.org/rwd/jsp/dbsearch/PrimarySearch_ki.jsp?energyterm=kJ/mole&tag=pol&polymerid=4676&target=DNA+repair+protein+RAD51+homolog+1&column=ki&startPg=0&Increment=50&submit=Search

> <Link to Ligand-Target Pair in BindingDB>
http://www.bindingdb.org/rwd/jsp/dbsearch/PrimarySearch_ki.jsp?energyterm=kJ/mole&tag=r21&monomerid=50614578&enzyme=DNA+repair+protein+RAD51+homolog+1&column=ki&startPg=0&Increment=50&submit=Search

> <Ligand HET ID in PDB>


> <PDB ID(s) for Ligand-Target Complex>


> <PubChem CID of Ligand>
172676066

> <PubChem SID of Ligand>
494504326

> <ChEBI ID of Ligand>


> <ChEMBL ID of Ligand>


> <DrugBank ID of Ligand>


> <IUPHAR_GRAC ID of Ligand>


> <KEGG ID of Ligand>


> <ZINC ID of Ligand>


> <Number of Protein Chains in Target (bigger than 1 implies a multichain complex)>
1

> <BindingDB Target Chain Sequence>
MAMQMQLEANADTSVEEESFGPQPISRLEQCGINANDVKKLEEAGFHTVEAVAYAPKKELINIKGISEAKADKILAEAAKLVPMGFTTATEFHQRRSEIIQITTGSKELDKLLQGGIETGSITEMFGEFRTGKTQICHTLAVTCQLPIDRGGGEGKAMYIDTEGTFRPERLLAVAERYGLSGSDVLDNVAYARAFNTDHQTQLLYQASAMMVESRYALLIVDSATALYRTDYSGRGELSARQMHLARFLRMLLRLADEFGVAVVITNQVVAQVDGAAMFAADPKKPIGGNIIAHASTTRLYLRKGRGETRICKIYDSPCLPEAEAMFAINADGVGDAKD

> <PDB ID(s) of Target Chain>


> <UniProt (SwissProt) Recommended Name of Target Chain>
DNA repair protein RAD51 homolog 1

> <UniProt (SwissProt) Entry Name of Target Chain>
RAD51_HUMAN

> <UniProt (SwissProt) Primary ID of Target Chain>
Q06609

> <UniProt (SwissProt) Secondary ID(s) of Target Chain>
B0FXP0 B2R8T6 Q6FHX9 Q6ZNA8 Q9BV60

> <UniProt (SwissProt) Alternative ID(s) of Target Chain>


> <UniProt (TrEMBL) Submitted Name of Target Chain>


> <UniProt (TrEMBL) Entry Name of Target Chain>


> <UniProt (TrEMBL) Primary ID of Target Chain>


> <UniProt (TrEMBL) Secondary ID(s) of Target Chain>


> <UniProt (TrEMBL) Alternative ID(s) of Target Chain>


$$$$

     RDKit          2D

 26 25  0  0  0  0  0  0  0  0999 V2000
   -2.4991   -0.2067    0.0000 C   0  0  0  0  0  0  0  0  0  0  0  0
   -1.7845    0.2055    0.0000 C   0  0  0  0  0  0  0  0  0  0  0  0
   -1.0726   -0.2062    0.0000 C   0  0  0  0  0  0  0  0  0  0  0  0
   -1.0726   -1.0315    0.0000 C   0  0  0  0  0  0  0  0  0  0  0  0
   -1.7828   -1.4433    0.0000 C   0  0  0  0  0  0  0  0  0  0  0  0
   -2.4991   -1.0352    0.0000 C   0  0  0  0  0  0  0  0  0  0  0  0
   -0.3580    0.2062    0.0000 C   0  0  0  0  0  0  0  0  0  0  0  0
    0.3565   -0.2062    0.0000 C   0  0  0  0  0  0  0  0  0  0  0  0
    1.0712    0.2062    0.0000 C   0  0  0  0  0  0  0  0  0  0  0  0
    1.0714    1.0315    0.0000 C   0  0  0  0  0  0  0  0  0  0  0  0
    1.7843    1.4422    0.0000 C   0  0  0  0  0  0  0  0  0  0  0  0
    2.4992    1.0294    0.0000 C   0  0  0  0  0  0  0  0  0  0  0  0
    2.5007    0.2083    0.0000 C   0  0  0  0  0  0  0  0  0  0  0  0
    1.7889   -0.2081    0.0000 C   0  0  0  0  0  0  0  0  0  0  0  0
    0.3568    1.4441    0.0000 S   0  0  0  0  0  0  0  0  0  0  0  0
   -0.3578    1.0315    0.0000 O   0  0  0  0  0  0  0  0  0  0  0  0
   -0.3580   -1.4440    0.0000 S   0  0  0  0  0  0  0  0  0  0  0  0
    0.3565   -1.0315    0.0000 O   0  0  0  0  0  0  0  0  0  0  0  0
    0.7701    2.1600    0.0000 O   0  0  0  0  0  0  0  0  0  0  0  0
   -0.0549    2.1600    0.0000 O   0  0  0  0  0  0  0  0  0  0  0  0
   -0.7713   -2.1600    0.0000 O   0  0  0  0  0  0  0  0  0  0  0  0
    0.0537   -2.1600    0.0000 O   0  0  0  0  0  0  0  0  0  0  0  0
   -3.2137   -1.4477    0.0000 I   0  0  0  0  0  0  0  0  0  0  0  0
    3.2137    1.4421    0.0000 I   0  0  0  0  0  0  0  0  0  0  0  0
   -1.2806    1.3148    0.0000 K   0  0  0  0  0 15  0  0  0  0  0  0
    1.0728   -1.6615    0.0000 K   0  0  0  0  0 15  0  0  0  0  0  0
  2  1  2  0
  3  2  1  0
  4  3  2  0
  5  4  1  0
  1  6  1  0
  6  5  2  0
  3  7  1  0
  7  8  2  0
  8  9  1  0
 10  9  2  0
 11 10  1  0
 12 11  2  0
 13 12  1  0
 14 13  2  0
  9 14  1  0
 10 15  1  0
 15 16  1  0
  4 17  1  0
 17 18  1  0
 15 19  2  0
 15 20  2  0
 17 21  2  0
 17 22  2  0
  6 23  1  0
 12 24  1  0
M  CHG  4  16  -1  18  -1  25   1  26   1
M  END
> <From>
www.bindingDB.org

> <BindingDB Reactant_set_id>
51527519

> <Ligand InChI>
InChI=1S/C14H10I2O6S2.2K/c15-11-5-3-9(13(7-11)23(17,18)19)1-2-10-4-6-12(16)8-14(10)24(20,21)22;;/h1-8H,(H,17,18,19)(H,20,21,22);;/q;2*+1/p-2/b2-1+;;

> <Ligand InChI Key>
OQPOCTJWFVNXTQ-SEPHDYHBSA-L

> <BindingDB MonomerID>
50614579

> <BindingDB Ligand Name>
CHEMBL5267208

> <Target Name>
DNA repair protein RAD51 homolog 1

> <Target Source Organism According to Curator or DataSource>
Homo sapiens

> <Ki (nM)>


> <IC50 (nM)>
 34000

> <Kd (nM)>


> <EC50 (nM)>


> <kon (M-1-s-1)>


> <koff (s-1)>


> <pH>


> <Temp C>


> <Curation/DataSource>
ChEMBL

> <Article DOI>


> <BindingDB Entry DOI>
10.7270/Q20G3QDN

> <PMID>
36990245

> <PubChem AID>


> <Patent Number>


> <Authors>
Demeyer, A; Fonteneau, L; Liennard, M; Foyer, C; Weigel, P; Laurent, AD; Lebreton, J; Fleury, F; Mathé-Allainmat, M

> <Date of publication>
5/1/2023

> <Date in BindingDB>
4/22/2024

> <Institution>
Nantes Universite

> <Link to Ligand in BindingDB>
http://www.bindingdb.org/bind/chemsearch/marvin/MolStructure.jsp?monomerid=50614579

> <Link to Ligand-Target Pair in BindingDB>
http://www.bindingdb.org/rwd/jsp/dbsearch/PrimarySearch_ki.jsp?energyterm=kJ/mole&tag=pol&polymerid=4676&target=DNA+repair+protein+RAD51+homolog+1&column=ki&startPg=0&Increment=50&submit=Search

> <Link to Ligand-Target Pair in BindingDB>
http://www.bindingdb.org/rwd/jsp/dbsearch/PrimarySearch_ki.jsp?energyterm=kJ/mole&tag=r21&monomerid=50614579&enzyme=DNA+repair+protein+RAD51+homolog+1&column=ki&startPg=0&Increment=50&submit=Search

> <Ligand HET ID in PDB>


> <PDB ID(s) for Ligand-Target Complex>


> <PubChem CID of Ligand>
6312061

> <PubChem SID of Ligand>
494504327

> <ChEBI ID of Ligand>


> <ChEMBL ID of Ligand>


> <DrugBank ID of Ligand>


> <IUPHAR_GRAC ID of Ligand>


> <KEGG ID of Ligand>


> <ZINC ID of Ligand>


> <Number of Protein Chains in Target (bigger than 1 implies a multichain complex)>
1

> <BindingDB Target Chain Sequence>
MAMQMQLEANADTSVEEESFGPQPISRLEQCGINANDVKKLEEAGFHTVEAVAYAPKKELINIKGISEAKADKILAEAAKLVPMGFTTATEFHQRRSEIIQITTGSKELDKLLQGGIETGSITEMFGEFRTGKTQICHTLAVTCQLPIDRGGGEGKAMYIDTEGTFRPERLLAVAERYGLSGSDVLDNVAYARAFNTDHQTQLLYQASAMMVESRYALLIVDSATALYRTDYSGRGELSARQMHLARFLRMLLRLADEFGVAVVITNQVVAQVDGAAMFAADPKKPIGGNIIAHASTTRLYLRKGRGETRICKIYDSPCLPEAEAMFAINADGVGDAKD

> <PDB ID(s) of Target Chain>


> <UniProt (SwissProt) Recommended Name of Target Chain>
DNA repair protein RAD51 homolog 1

> <UniProt (SwissProt) Entry Name of Target Chain>
RAD51_HUMAN

> <UniProt (SwissProt) Primary ID of Target Chain>
Q06609

> <UniProt (SwissProt) Secondary ID(s) of Target Chain>
B0FXP0 B2R8T6 Q6FHX9 Q6ZNA8 Q9BV60

> <UniProt (SwissProt) Alternative ID(s) of Target Chain>


> <UniProt (TrEMBL) Submitted Name of Target Chain>


> <UniProt (TrEMBL) Entry Name of Target Chain>


> <UniProt (TrEMBL) Primary ID of Target Chain>


> <UniProt (TrEMBL) Secondary ID(s) of Target Chain>


> <UniProt (TrEMBL) Alternative ID(s) of Target Chain>


$$$$

     RDKit          2D

 30 29  0  0  0  0  0  0  0  0999 V2000
   -2.4992   -0.2038    0.0000 C   0  0  0  0  0  0  0  0  0  0  0  0
   -1.7846    0.2084    0.0000 C   0  0  0  0  0  0  0  0  0  0  0  0
   -1.0726   -0.2034    0.0000 C   0  0  0  0  0  0  0  0  0  0  0  0
   -1.0726   -1.0286    0.0000 C   0  0  0  0  0  0  0  0  0  0  0  0
   -1.7828   -1.4404    0.0000 C   0  0  0  0  0  0  0  0  0  0  0  0
   -2.4992   -1.0323    0.0000 C   0  0  0  0  0  0  0  0  0  0  0  0
   -0.3580    0.2091    0.0000 C   0  0  0  0  0  0  0  0  0  0  0  0
    0.3565   -0.2034    0.0000 C   0  0  0  0  0  0  0  0  0  0  0  0
    1.0712    0.2091    0.0000 C   0  0  0  0  0  0  0  0  0  0  0  0
    1.0714    1.0343    0.0000 C   0  0  0  0  0  0  0  0  0  0  0  0
    1.7843    1.4450    0.0000 C   0  0  0  0  0  0  0  0  0  0  0  0
    2.4991    1.0323    0.0000 C   0  0  0  0  0  0  0  0  0  0  0  0
    2.5007    0.2112    0.0000 C   0  0  0  0  0  0  0  0  0  0  0  0
    1.7888   -0.2052    0.0000 C   0  0  0  0  0  0  0  0  0  0  0  0
    0.3568    1.4469    0.0000 S   0  0  0  0  0  0  0  0  0  0  0  0
   -0.3578    1.0343    0.0000 O   0  0  0  0  0  0  0  0  0  0  0  0
   -0.3580   -1.4412    0.0000 S   0  0  0  0  0  0  0  0  0  0  0  0
    0.3565   -1.0286    0.0000 O   0  0  0  0  0  0  0  0  0  0  0  0
    0.7701    2.1629    0.0000 O   0  0  0  0  0  0  0  0  0  0  0  0
   -0.0549    2.1629    0.0000 O   0  0  0  0  0  0  0  0  0  0  0  0
   -0.7714   -2.1572    0.0000 O   0  0  0  0  0  0  0  0  0  0  0  0
    0.0537   -2.1572    0.0000 O   0  0  0  0  0  0  0  0  0  0  0  0
   -3.2137   -1.4449    0.0000 N   0  0  0  0  0  0  0  0  0  0  0  0
   -3.9284   -1.0323    0.0000 O   0  0  0  0  0  0  0  0  0  0  0  0
   -3.2137   -2.2701    0.0000 O   0  0  0  0  0  0  0  0  0  0  0  0
    3.2137    1.4449    0.0000 N   0  0  0  0  0  0  0  0  0  0  0  0
    3.9284    1.0323    0.0000 O   0  0  0  0  0  0  0  0  0  0  0  0
    3.2137    2.2701    0.0000 O   0  0  0  0  0  0  0  0  0  0  0  0
    1.2458   -1.2780    0.0000 Na  0  0  0  0  0 15  0  0  0  0  0  0
   -1.5228    1.3868    0.0000 Na  0  0  0  0  0 15  0  0  0  0  0  0
  2  1  2  0
  3  2  1  0
  4  3  2  0
  5  4  1  0
  1  6  1  0
  6  5  2  0
  3  7  1  0
  7  8  2  0
  8  9  1  0
 10  9  2  0
 11 10  1  0
 12 11  2  0
 13 12  1  0
 14 13  2  0
  9 14  1  0
 10 15  1  0
 15 16  1  0
  4 17  1  0
 17 18  1  0
 15 19  2  0
 15 20  2  0
 17 21  2  0
 17 22  2  0
 23  6  1  0
 23 24  1  0
 23 25  2  0
 26 12  1  0
 26 27  1  0
 26 28  2  0
M  CHG  8  16  -1  18  -1  23   1  24  -1  26   1  27  -1  29   1  30   1
M  END
> <From>
www.bindingDB.org

> <BindingDB Reactant_set_id>
51527520

> <Ligand InChI>
InChI=1S/C14H10N2O10S2.2Na/c17-15(18)11-5-3-9(13(7-11)27(21,22)23)1-2-10-4-6-12(16(19)20)8-14(10)28(24,25)26;;/h1-8H,(H,21,22,23)(H,24,25,26);;/q;2*+1/p-2/b2-1+;;

> <Ligand InChI Key>
SDCDTWFAOKXZHD-SEPHDYHBSA-L

> <BindingDB MonomerID>
50614587

> <BindingDB Ligand Name>
CHEMBL5287526

> <Target Name>
DNA repair protein RAD51 homolog 1

> <Target Source Organism According to Curator or DataSource>
Homo sapiens

> <Ki (nM)>


> <IC50 (nM)>
>50000

> <Kd (nM)>


> <EC50 (nM)>


> <kon (M-1-s-1)>


> <koff (s-1)>


> <pH>


> <Temp C>


> <Curation/DataSource>
ChEMBL

> <Article DOI>


> <BindingDB Entry DOI>
10.7270/Q20G3QDN

> <PMID>
36990245

> <PubChem AID>


> <Patent Number>


> <Authors>
Demeyer, A; Fonteneau, L; Liennard, M; Foyer, C; Weigel, P; Laurent, AD; Lebreton, J; Fleury, F; Mathé-Allainmat, M

> <Date of publication>
5/1/2023

> <Date in BindingDB>
4/22/2024

> <Institution>
Nantes Universite

> <Link to Ligand in BindingDB>
http://www.bindingdb.org/bind/chemsearch/marvin/MolStructure.jsp?monomerid=50614587

> <Link to Ligand-Target Pair in BindingDB>
http://www.bindingdb.org/rwd/jsp/dbsearch/PrimarySearch_ki.jsp?energyterm=kJ/mole&tag=pol&polymerid=4676&target=DNA+repair+protein+RAD51+homolog+1&column=ki&startPg=0&Increment=50&submit=Search

> <Link to Ligand-Target Pair in BindingDB>
http://www.bindingdb.org/rwd/jsp/dbsearch/PrimarySearch_ki.jsp?energyterm=kJ/mole&tag=r21&monomerid=50614587&enzyme=DNA+repair+protein+RAD51+homolog+1&column=ki&startPg=0&Increment=50&submit=Search

> <Ligand HET ID in PDB>


> <PDB ID(s) for Ligand-Target Complex>


> <PubChem CID of Ligand>
6039292

> <PubChem SID of Ligand>
494504335

> <ChEBI ID of Ligand>


> <ChEMBL ID of Ligand>


> <DrugBank ID of Ligand>


> <IUPHAR_GRAC ID of Ligand>


> <KEGG ID of Ligand>


> <ZINC ID of Ligand>


> <Number of Protein Chains in Target (bigger than 1 implies a multichain complex)>
1

> <BindingDB Target Chain Sequence>
MAMQMQLEANADTSVEEESFGPQPISRLEQCGINANDVKKLEEAGFHTVEAVAYAPKKELINIKGISEAKADKILAEAAKLVPMGFTTATEFHQRRSEIIQITTGSKELDKLLQGGIETGSITEMFGEFRTGKTQICHTLAVTCQLPIDRGGGEGKAMYIDTEGTFRPERLLAVAERYGLSGSDVLDNVAYARAFNTDHQTQLLYQASAMMVESRYALLIVDSATALYRTDYSGRGELSARQMHLARFLRMLLRLADEFGVAVVITNQVVAQVDGAAMFAADPKKPIGGNIIAHASTTRLYLRKGRGETRICKIYDSPCLPEAEAMFAINADGVGDAKD

> <PDB ID(s) of Target Chain>


> <UniProt (SwissProt) Recommended Name of Target Chain>
DNA repair protein RAD51 homolog 1

> <UniProt (SwissProt) Entry Name of Target Chain>
RAD51_HUMAN

> <UniProt (SwissProt) Primary ID of Target Chain>
Q06609

> <UniProt (SwissProt) Secondary ID(s) of Target Chain>
B0FXP0 B2R8T6 Q6FHX9 Q6ZNA8 Q9BV60

> <UniProt (SwissProt) Alternative ID(s) of Target Chain>


> <UniProt (TrEMBL) Submitted Name of Target Chain>


> <UniProt (TrEMBL) Entry Name of Target Chain>


> <UniProt (TrEMBL) Primary ID of Target Chain>


> <UniProt (TrEMBL) Secondary ID(s) of Target Chain>


> <UniProt (TrEMBL) Alternative ID(s) of Target Chain>


$$$$

     RDKit          2D

 30 29  0  0  0  0  0  0  0  0999 V2000
   -1.7844   -0.6728    0.0000 C   0  0  0  0  0  0  0  0  0  0  0  0
   -1.0698   -0.2605    0.0000 C   0  0  0  0  0  0  0  0  0  0  0  0
   -0.3580   -0.6725    0.0000 C   0  0  0  0  0  0  0  0  0  0  0  0
   -0.3580   -1.4976    0.0000 C   0  0  0  0  0  0  0  0  0  0  0  0
   -1.0681   -1.9095    0.0000 C   0  0  0  0  0  0  0  0  0  0  0  0
   -1.7844   -1.5013    0.0000 C   0  0  0  0  0  0  0  0  0  0  0  0
    0.3566   -0.2598    0.0000 C   0  0  0  0  0  0  0  0  0  0  0  0
    1.0712   -0.6725    0.0000 C   0  0  0  0  0  0  0  0  0  0  0  0
    1.7858   -0.2598    0.0000 C   0  0  0  0  0  0  0  0  0  0  0  0
    1.7860    0.5653    0.0000 C   0  0  0  0  0  0  0  0  0  0  0  0
    2.4989    0.9760    0.0000 C   0  0  0  0  0  0  0  0  0  0  0  0
    3.2137    0.5633    0.0000 C   0  0  0  0  0  0  0  0  0  0  0  0
    3.2154   -0.2577    0.0000 C   0  0  0  0  0  0  0  0  0  0  0  0
    2.5036   -0.6742    0.0000 C   0  0  0  0  0  0  0  0  0  0  0  0
    1.0714    0.9779    0.0000 S   0  0  0  0  0  0  0  0  0  0  0  0
    0.3568    0.5653    0.0000 O   0  0  0  0  0  0  0  0  0  0  0  0
    0.3566   -1.9102    0.0000 S   0  0  0  0  0  0  0  0  0  0  0  0
    1.0712   -1.4976    0.0000 O   0  0  0  0  0  0  0  0  0  0  0  0
    1.4848    1.6938    0.0000 O   0  0  0  0  0  0  0  0  0  0  0  0
    0.6596    1.6938    0.0000 O   0  0  0  0  0  0  0  0  0  0  0  0
   -0.0567   -2.6262    0.0000 O   0  0  0  0  0  0  0  0  0  0  0  0
    0.7683   -2.6262    0.0000 O   0  0  0  0  0  0  0  0  0  0  0  0
   -2.4991   -1.9139    0.0000 N   0  0  0  0  0  0  0  0  0  0  0  0
    3.9284    0.9758    0.0000 N   0  0  0  0  0  0  0  0  0  0  0  0
    3.9284    1.8011    0.0000 N   0  0  0  0  0  0  0  0  0  0  0  0
    3.9284    2.6262    0.0000 N   0  0  0  0  0  0  0  0  0  0  0  0
   -3.2137   -1.5013    0.0000 N   0  0  0  0  0  0  0  0  0  0  0  0
   -3.9284   -1.0888    0.0000 N   0  0  0  0  0  0  0  0  0  0  0  0
    1.7874   -1.9552    0.0000 Na  0  0  0  0  0 15  0  0  0  0  0  0
   -0.7389    1.0557    0.0000 Na  0  0  0  0  0 15  0  0  0  0  0  0
  2  1  2  0
  3  2  1  0
  4  3  2  0
  5  4  1  0
  1  6  1  0
  6  5  2  0
  3  7  1  0
  7  8  2  0
  8  9  1  0
 10  9  2  0
 11 10  1  0
 12 11  2  0
 13 12  1  0
 14 13  2  0
  9 14  1  0
 10 15  1  0
 15 16  1  0
  4 17  1  0
 17 18  1  0
 15 19  2  0
 15 20  2  0
 17 21  2  0
 17 22  2  0
  6 23  1  0
 12 24  1  0
 24 25  2  0
 25 26  2  0
 23 27  2  0
 27 28  2  0
M  CHG  8  16  -1  18  -1  25   1  26  -1  27   1  28  -1  29   1  30   1
M  END
> <From>
www.bindingDB.org

> <BindingDB Reactant_set_id>
51527521

> <Ligand InChI>
InChI=1S/C14H10N6O6S2.2Na/c15-19-17-11-5-3-9(13(7-11)27(21,22)23)1-2-10-4-6-12(18-20-16)8-14(10)28(24,25)26;;/h1-8H,(H,21,22,23)(H,24,25,26);;/q;2*+1/p-2/b2-1+;;

> <Ligand InChI Key>
HYYYTIDWAIQGHI-SEPHDYHBSA-L

> <BindingDB MonomerID>
50614580

> <BindingDB Ligand Name>
CHEMBL5269627

> <Target Name>
DNA repair protein RAD51 homolog 1

> <Target Source Organism According to Curator or DataSource>
Homo sapiens

> <Ki (nM)>


> <IC50 (nM)>
 21500

> <Kd (nM)>


> <EC50 (nM)>


> <kon (M-1-s-1)>


> <koff (s-1)>


> <pH>


> <Temp C>


> <Curation/DataSource>
ChEMBL

> <Article DOI>


> <BindingDB Entry DOI>
10.7270/Q20G3QDN

> <PMID>
36990245

> <PubChem AID>


> <Patent Number>


> <Authors>
Demeyer, A; Fonteneau, L; Liennard, M; Foyer, C; Weigel, P; Laurent, AD; Lebreton, J; Fleury, F; Mathé-Allainmat, M

> <Date of publication>
5/1/2023

> <Date in BindingDB>
4/22/2024

> <Institution>
Nantes Universite

> <Link to Ligand in BindingDB>
http://www.bindingdb.org/bind/chemsearch/marvin/MolStructure.jsp?monomerid=50614580

> <Link to Ligand-Target Pair in BindingDB>
http://www.bindingdb.org/rwd/jsp/dbsearch/PrimarySearch_ki.jsp?energyterm=kJ/mole&tag=pol&polymerid=4676&target=DNA+repair+protein+RAD51+homolog+1&column=ki&startPg=0&Increment=50&submit=Search

> <Link to Ligand-Target Pair in BindingDB>
http://www.bindingdb.org/rwd/jsp/dbsearch/PrimarySearch_ki.jsp?energyterm=kJ/mole&tag=r21&monomerid=50614580&enzyme=DNA+repair+protein+RAD51+homolog+1&column=ki&startPg=0&Increment=50&submit=Search

> <Ligand HET ID in PDB>


> <PDB ID(s) for Ligand-Target Complex>


> <PubChem CID of Ligand>
6057277

> <PubChem SID of Ligand>
494504328

> <ChEBI ID of Ligand>


> <ChEMBL ID of Ligand>


> <DrugBank ID of Ligand>


> <IUPHAR_GRAC ID of Ligand>


> <KEGG ID of Ligand>


> <ZINC ID of Ligand>


> <Number of Protein Chains in Target (bigger than 1 implies a multichain complex)>
1

> <BindingDB Target Chain Sequence>
MAMQMQLEANADTSVEEESFGPQPISRLEQCGINANDVKKLEEAGFHTVEAVAYAPKKELINIKGISEAKADKILAEAAKLVPMGFTTATEFHQRRSEIIQITTGSKELDKLLQGGIETGSITEMFGEFRTGKTQICHTLAVTCQLPIDRGGGEGKAMYIDTEGTFRPERLLAVAERYGLSGSDVLDNVAYARAFNTDHQTQLLYQASAMMVESRYALLIVDSATALYRTDYSGRGELSARQMHLARFLRMLLRLADEFGVAVVITNQVVAQVDGAAMFAADPKKPIGGNIIAHASTTRLYLRKGRGETRICKIYDSPCLPEAEAMFAINADGVGDAKD

> <PDB ID(s) of Target Chain>


> <UniProt (SwissProt) Recommended Name of Target Chain>
DNA repair protein RAD51 homolog 1

> <UniProt (SwissProt) Entry Name of Target Chain>
RAD51_HUMAN

> <UniProt (SwissProt) Primary ID of Target Chain>
Q06609

> <UniProt (SwissProt) Secondary ID(s) of Target Chain>
B0FXP0 B2R8T6 Q6FHX9 Q6ZNA8 Q9BV60

> <UniProt (SwissProt) Alternative ID(s) of Target Chain>


> <UniProt (TrEMBL) Submitted Name of Target Chain>


> <UniProt (TrEMBL) Entry Name of Target Chain>


> <UniProt (TrEMBL) Primary ID of Target Chain>


> <UniProt (TrEMBL) Secondary ID(s) of Target Chain>


> <UniProt (TrEMBL) Alternative ID(s) of Target Chain>


$$$$

     RDKit          2D

 28 27  0  0  0  0  0  0  0  0999 V2000
   -2.4991   -0.2067    0.0000 C   0  0  0  0  0  0  0  0  0  0  0  0
   -1.7845    0.2054    0.0000 C   0  0  0  0  0  0  0  0  0  0  0  0
   -1.0726   -0.2062    0.0000 C   0  0  0  0  0  0  0  0  0  0  0  0
   -1.0726   -1.0315    0.0000 C   0  0  0  0  0  0  0  0  0  0  0  0
   -1.7827   -1.4433    0.0000 C   0  0  0  0  0  0  0  0  0  0  0  0
   -2.4991   -1.0351    0.0000 C   0  0  0  0  0  0  0  0  0  0  0  0
   -0.3580    0.2062    0.0000 C   0  0  0  0  0  0  0  0  0  0  0  0
    0.3565   -0.2062    0.0000 C   0  0  0  0  0  0  0  0  0  0  0  0
    1.0712    0.2062    0.0000 C   0  0  0  0  0  0  0  0  0  0  0  0
    1.0713    1.0315    0.0000 C   0  0  0  0  0  0  0  0  0  0  0  0
    1.7843    1.4422    0.0000 C   0  0  0  0  0  0  0  0  0  0  0  0
    2.4992    1.0294    0.0000 C   0  0  0  0  0  0  0  0  0  0  0  0
    2.5007    0.2083    0.0000 C   0  0  0  0  0  0  0  0  0  0  0  0
    1.7889   -0.2081    0.0000 C   0  0  0  0  0  0  0  0  0  0  0  0
    0.3568    1.4440    0.0000 S   0  0  0  0  0  0  0  0  0  0  0  0
   -0.3578    1.0315    0.0000 O   0  0  0  0  0  0  0  0  0  0  0  0
   -0.3580   -1.4440    0.0000 S   0  0  0  0  0  0  0  0  0  0  0  0
    0.3565   -1.0315    0.0000 O   0  0  0  0  0  0  0  0  0  0  0  0
    0.7701    2.1600    0.0000 O   0  0  0  0  0  0  0  0  0  0  0  0
   -0.0549    2.1600    0.0000 O   0  0  0  0  0  0  0  0  0  0  0  0
   -0.7713   -2.1600    0.0000 O   0  0  0  0  0  0  0  0  0  0  0  0
    0.0537   -2.1600    0.0000 O   0  0  0  0  0  0  0  0  0  0  0  0
   -3.2136   -1.4477    0.0000 C   0  0  0  0  0  0  0  0  0  0  0  0
   -3.9284   -1.8603    0.0000 N   0  0  0  0  0  0  0  0  0  0  0  0
    3.2136    1.4420    0.0000 C   0  0  0  0  0  0  0  0  0  0  0  0
    3.9284    1.8547    0.0000 N   0  0  0  0  0  0  0  0  0  0  0  0
    1.0728   -1.5581    0.0000 Na  0  0  0  0  0 15  0  0  0  0  0  0
   -1.4189    1.4528    0.0000 Na  0  0  0  0  0 15  0  0  0  0  0  0
  2  1  2  0
  3  2  1  0
  4  3  2  0
  5  4  1  0
  1  6  1  0
  6  5  2  0
  3  7  1  0
  7  8  1  0
  8  9  1  0
 10  9  2  0
 11 10  1  0
 12 11  2  0
 13 12  1  0
 14 13  2  0
  9 14  1  0
 10 15  1  0
 15 16  1  0
  4 17  1  0
 17 18  1  0
 15 19  2  0
 15 20  2  0
 17 21  2  0
 17 22  2  0
 23  6  1  0
 23 24  3  0
 25 12  1  0
 25 26  3  0
M  CHG  4  16  -1  18  -1  27   1  28   1
M  END
> <From>
www.bindingDB.org

> <BindingDB Reactant_set_id>
51527522

> <Ligand InChI>
InChI=1S/C16H12N2O6S2.2Na/c17-9-11-1-3-13(15(7-11)25(19,20)21)5-6-14-4-2-12(10-18)8-16(14)26(22,23)24;;/h1-4,7-8H,5-6H2,(H,19,20,21)(H,22,23,24);;/q;2*+1/p-2

> <Ligand InChI Key>
CNBXZDOOFZBWCD-UHFFFAOYSA-L

> <BindingDB MonomerID>
50614588

> <BindingDB Ligand Name>
CHEMBL5267296

> <Target Name>
DNA repair protein RAD51 homolog 1

> <Target Source Organism According to Curator or DataSource>
Homo sapiens

> <Ki (nM)>


> <IC50 (nM)>
>50000

> <Kd (nM)>


> <EC50 (nM)>


> <kon (M-1-s-1)>


> <koff (s-1)>


> <pH>


> <Temp C>


> <Curation/DataSource>
ChEMBL

> <Article DOI>


> <BindingDB Entry DOI>
10.7270/Q20G3QDN

> <PMID>
36990245

> <PubChem AID>


> <Patent Number>


> <Authors>
Demeyer, A; Fonteneau, L; Liennard, M; Foyer, C; Weigel, P; Laurent, AD; Lebreton, J; Fleury, F; Mathé-Allainmat, M

> <Date of publication>
5/1/2023

> <Date in BindingDB>
4/22/2024

> <Institution>
Nantes Universite

> <Link to Ligand in BindingDB>
http://www.bindingdb.org/bind/chemsearch/marvin/MolStructure.jsp?monomerid=50614588

> <Link to Ligand-Target Pair in BindingDB>
http://www.bindingdb.org/rwd/jsp/dbsearch/PrimarySearch_ki.jsp?energyterm=kJ/mole&tag=pol&polymerid=4676&target=DNA+repair+protein+RAD51+homolog+1&column=ki&startPg=0&Increment=50&submit=Search

> <Link to Ligand-Target Pair in BindingDB>
http://www.bindingdb.org/rwd/jsp/dbsearch/PrimarySearch_ki.jsp?energyterm=kJ/mole&tag=r21&monomerid=50614588&enzyme=DNA+repair+protein+RAD51+homolog+1&column=ki&startPg=0&Increment=50&submit=Search

> <Ligand HET ID in PDB>


> <PDB ID(s) for Ligand-Target Complex>


> <PubChem CID of Ligand>
172676069

> <PubChem SID of Ligand>
494504336

> <ChEBI ID of Ligand>


> <ChEMBL ID of Ligand>


> <DrugBank ID of Ligand>


> <IUPHAR_GRAC ID of Ligand>


> <KEGG ID of Ligand>


> <ZINC ID of Ligand>


> <Number of Protein Chains in Target (bigger than 1 implies a multichain complex)>
1

> <BindingDB Target Chain Sequence>
MAMQMQLEANADTSVEEESFGPQPISRLEQCGINANDVKKLEEAGFHTVEAVAYAPKKELINIKGISEAKADKILAEAAKLVPMGFTTATEFHQRRSEIIQITTGSKELDKLLQGGIETGSITEMFGEFRTGKTQICHTLAVTCQLPIDRGGGEGKAMYIDTEGTFRPERLLAVAERYGLSGSDVLDNVAYARAFNTDHQTQLLYQASAMMVESRYALLIVDSATALYRTDYSGRGELSARQMHLARFLRMLLRLADEFGVAVVITNQVVAQVDGAAMFAADPKKPIGGNIIAHASTTRLYLRKGRGETRICKIYDSPCLPEAEAMFAINADGVGDAKD

> <PDB ID(s) of Target Chain>


> <UniProt (SwissProt) Recommended Name of Target Chain>
DNA repair protein RAD51 homolog 1

> <UniProt (SwissProt) Entry Name of Target Chain>
RAD51_HUMAN

> <UniProt (SwissProt) Primary ID of Target Chain>
Q06609

> <UniProt (SwissProt) Secondary ID(s) of Target Chain>
B0FXP0 B2R8T6 Q6FHX9 Q6ZNA8 Q9BV60

> <UniProt (SwissProt) Alternative ID(s) of Target Chain>


> <UniProt (TrEMBL) Submitted Name of Target Chain>


> <UniProt (TrEMBL) Entry Name of Target Chain>


> <UniProt (TrEMBL) Primary ID of Target Chain>


> <UniProt (TrEMBL) Secondary ID(s) of Target Chain>


> <UniProt (TrEMBL) Alternative ID(s) of Target Chain>


$$$$

     RDKit          2D

 31 30  0  0  0  0  0  0  0  0999 V2000
   -3.2137    0.2623    0.0000 C   0  0  0  0  0  0  0  0  0  0  0  0
   -2.4992    0.6746    0.0000 C   0  0  0  0  0  0  0  0  0  0  0  0
   -1.7873    0.2627    0.0000 C   0  0  0  0  0  0  0  0  0  0  0  0
   -1.7873   -0.5624    0.0000 C   0  0  0  0  0  0  0  0  0  0  0  0
   -2.4973   -0.9742    0.0000 C   0  0  0  0  0  0  0  0  0  0  0  0
   -3.2137   -0.5661    0.0000 C   0  0  0  0  0  0  0  0  0  0  0  0
   -1.0726    0.6753    0.0000 C   0  0  0  0  0  0  0  0  0  0  0  0
   -0.3580    0.2627    0.0000 C   0  0  0  0  0  0  0  0  0  0  0  0
    0.3565    0.6753    0.0000 C   0  0  0  0  0  0  0  0  0  0  0  0
    0.3568    1.5005    0.0000 C   0  0  0  0  0  0  0  0  0  0  0  0
    1.0696    1.9112    0.0000 C   0  0  0  0  0  0  0  0  0  0  0  0
    1.7845    1.4985    0.0000 C   0  0  0  0  0  0  0  0  0  0  0  0
    1.7861    0.6774    0.0000 C   0  0  0  0  0  0  0  0  0  0  0  0
    1.0742    0.2609    0.0000 C   0  0  0  0  0  0  0  0  0  0  0  0
   -0.3578    1.9132    0.0000 S   0  0  0  0  0  0  0  0  0  0  0  0
   -1.0724    1.5005    0.0000 O   0  0  0  0  0  0  0  0  0  0  0  0
   -1.0726   -0.9750    0.0000 S   0  0  0  0  0  0  0  0  0  0  0  0
   -0.3580   -0.5624    0.0000 O   0  0  0  0  0  0  0  0  0  0  0  0
    0.0555    2.6291    0.0000 O   0  0  0  0  0  0  0  0  0  0  0  0
   -0.7696    2.6291    0.0000 O   0  0  0  0  0  0  0  0  0  0  0  0
   -1.4860   -1.6910    0.0000 O   0  0  0  0  0  0  0  0  0  0  0  0
   -0.6608   -1.6910    0.0000 O   0  0  0  0  0  0  0  0  0  0  0  0
   -3.9284   -0.9787    0.0000 N   0  0  0  0  0  0  0  0  0  0  0  0
   -3.9284   -1.8039    0.0000 C   0  0  0  0  0  0  0  0  0  0  0  0
   -3.9284   -2.6291    0.0000 S   0  0  0  0  0  0  0  0  0  0  0  0
    2.4992    1.9111    0.0000 N   0  0  0  0  0  0  0  0  0  0  0  0
    3.2137    1.4985    0.0000 C   0  0  0  0  0  0  0  0  0  0  0  0
    3.9284    1.9111    0.0000 C   0  0  0  0  0  0  0  0  0  0  0  0
    3.2137    0.6733    0.0000 O   0  0  0  0  0  0  0  0  0  0  0  0
   -2.1682    1.5756    0.0000 Na  0  0  0  0  0 15  0  0  0  0  0  0
    0.3928   -1.0545    0.0000 Na  0  0  0  0  0 15  0  0  0  0  0  0
  2  1  2  0
  3  2  1  0
  4  3  2  0
  5  4  1  0
  1  6  1  0
  6  5  2  0
  3  7  1  0
  7  8  2  0
  8  9  1  0
 10  9  2  0
 11 10  1  0
 12 11  2  0
 13 12  1  0
 14 13  2  0
  9 14  1  0
 10 15  1  0
 15 16  1  0
  4 17  1  0
 17 18  1  0
 15 19  2  0
 15 20  2  0
 17 21  2  0
 17 22  2  0
  6 23  1  0
 23 24  2  0
 24 25  2  0
 12 26  1  0
 26 27  1  0
 27 28  1  0
 27 29  2  0
M  CHG  4  16  -1  18  -1  30   1  31   1
M  END
> <From>
www.bindingDB.org

> <BindingDB Reactant_set_id>
51527523

> <Ligand InChI>
InChI=1S/C17H14N2O7S3.2Na/c1-11(20)19-15-7-5-13(17(9-15)29(24,25)26)3-2-12-4-6-14(18-10-27)8-16(12)28(21,22)23;;/h2-9H,1H3,(H,19,20)(H,21,22,23)(H,24,25,26);;/q;2*+1/p-2/b3-2+;;

> <Ligand InChI Key>
NPAWAMRXPHRVQY-WTVBWJGASA-L

> <BindingDB MonomerID>
50614589

> <BindingDB Ligand Name>
CHEMBL5287615

> <Target Name>
DNA repair protein RAD51 homolog 1

> <Target Source Organism According to Curator or DataSource>
Homo sapiens

> <Ki (nM)>


> <IC50 (nM)>
 29000

> <Kd (nM)>


> <EC50 (nM)>


> <kon (M-1-s-1)>


> <koff (s-1)>


> <pH>


> <Temp C>


> <Curation/DataSource>
ChEMBL

> <Article DOI>


> <BindingDB Entry DOI>
10.7270/Q20G3QDN

> <PMID>
36990245

> <PubChem AID>


> <Patent Number>


> <Authors>
Demeyer, A; Fonteneau, L; Liennard, M; Foyer, C; Weigel, P; Laurent, AD; Lebreton, J; Fleury, F; Mathé-Allainmat, M

> <Date of publication>
5/1/2023

> <Date in BindingDB>
4/22/2024

> <Institution>
Nantes Universite

> <Link to Ligand in BindingDB>
http://www.bindingdb.org/bind/chemsearch/marvin/MolStructure.jsp?monomerid=50614589

> <Link to Ligand-Target Pair in BindingDB>
http://www.bindingdb.org/rwd/jsp/dbsearch/PrimarySearch_ki.jsp?energyterm=kJ/mole&tag=pol&polymerid=4676&target=DNA+repair+protein+RAD51+homolog+1&column=ki&startPg=0&Increment=50&submit=Search

> <Link to Ligand-Target Pair in BindingDB>
http://www.bindingdb.org/rwd/jsp/dbsearch/PrimarySearch_ki.jsp?energyterm=kJ/mole&tag=r21&monomerid=50614589&enzyme=DNA+repair+protein+RAD51+homolog+1&column=ki&startPg=0&Increment=50&submit=Search

> <Ligand HET ID in PDB>


> <PDB ID(s) for Ligand-Target Complex>


> <PubChem CID of Ligand>
5944675

> <PubChem SID of Ligand>
494504337

> <ChEBI ID of Ligand>


> <ChEMBL ID of Ligand>


> <DrugBank ID of Ligand>


> <IUPHAR_GRAC ID of Ligand>


> <KEGG ID of Ligand>


> <ZINC ID of Ligand>


> <Number of Protein Chains in Target (bigger than 1 implies a multichain complex)>
1

> <BindingDB Target Chain Sequence>
MAMQMQLEANADTSVEEESFGPQPISRLEQCGINANDVKKLEEAGFHTVEAVAYAPKKELINIKGISEAKADKILAEAAKLVPMGFTTATEFHQRRSEIIQITTGSKELDKLLQGGIETGSITEMFGEFRTGKTQICHTLAVTCQLPIDRGGGEGKAMYIDTEGTFRPERLLAVAERYGLSGSDVLDNVAYARAFNTDHQTQLLYQASAMMVESRYALLIVDSATALYRTDYSGRGELSARQMHLARFLRMLLRLADEFGVAVVITNQVVAQVDGAAMFAADPKKPIGGNIIAHASTTRLYLRKGRGETRICKIYDSPCLPEAEAMFAINADGVGDAKD

> <PDB ID(s) of Target Chain>


> <UniProt (SwissProt) Recommended Name of Target Chain>
DNA repair protein RAD51 homolog 1

> <UniProt (SwissProt) Entry Name of Target Chain>
RAD51_HUMAN

> <UniProt (SwissProt) Primary ID of Target Chain>
Q06609

> <UniProt (SwissProt) Secondary ID(s) of Target Chain>
B0FXP0 B2R8T6 Q6FHX9 Q6ZNA8 Q9BV60

> <UniProt (SwissProt) Alternative ID(s) of Target Chain>


> <UniProt (TrEMBL) Submitted Name of Target Chain>


> <UniProt (TrEMBL) Entry Name of Target Chain>


> <UniProt (TrEMBL) Primary ID of Target Chain>


> <UniProt (TrEMBL) Secondary ID(s) of Target Chain>


> <UniProt (TrEMBL) Alternative ID(s) of Target Chain>


$$$$

     RDKit          2D

 29 28  0  0  0  0  0  0  0  0999 V2000
   -2.4991   -0.2603    0.0000 C   0  0  0  0  0  0  0  0  0  0  0  0
   -1.7845    0.1519    0.0000 C   0  0  0  0  0  0  0  0  0  0  0  0
   -1.0727   -0.2599    0.0000 C   0  0  0  0  0  0  0  0  0  0  0  0
   -1.0727   -1.0850    0.0000 C   0  0  0  0  0  0  0  0  0  0  0  0
   -1.7827   -1.4968    0.0000 C   0  0  0  0  0  0  0  0  0  0  0  0
   -2.4991   -1.0887    0.0000 C   0  0  0  0  0  0  0  0  0  0  0  0
   -0.3580    0.1526    0.0000 C   0  0  0  0  0  0  0  0  0  0  0  0
    0.3565   -0.2599    0.0000 C   0  0  0  0  0  0  0  0  0  0  0  0
    1.0711    0.1526    0.0000 C   0  0  0  0  0  0  0  0  0  0  0  0
    1.0714    0.9779    0.0000 C   0  0  0  0  0  0  0  0  0  0  0  0
    1.7843    1.3886    0.0000 C   0  0  0  0  0  0  0  0  0  0  0  0
    2.4991    0.9759    0.0000 C   0  0  0  0  0  0  0  0  0  0  0  0
    2.5007    0.1548    0.0000 C   0  0  0  0  0  0  0  0  0  0  0  0
    1.7889   -0.2616    0.0000 C   0  0  0  0  0  0  0  0  0  0  0  0
    0.3568    1.3905    0.0000 S   0  0  0  0  0  0  0  0  0  0  0  0
   -0.3578    0.9779    0.0000 O   0  0  0  0  0  0  0  0  0  0  0  0
   -0.3580   -1.4977    0.0000 S   0  0  0  0  0  0  0  0  0  0  0  0
    0.3565   -1.0850    0.0000 O   0  0  0  0  0  0  0  0  0  0  0  0
    0.7701    2.1065    0.0000 O   0  0  0  0  0  0  0  0  0  0  0  0
   -0.0550    2.1065    0.0000 O   0  0  0  0  0  0  0  0  0  0  0  0
   -0.7714   -2.2136    0.0000 O   0  0  0  0  0  0  0  0  0  0  0  0
    0.0537   -2.2136    0.0000 O   0  0  0  0  0  0  0  0  0  0  0  0
    3.2138    1.3884    0.0000 N   0  0  0  0  0  0  0  0  0  0  0  0
    3.9284    0.9759    0.0000 O   0  0  0  0  0  0  0  0  0  0  0  0
    3.2138    2.2136    0.0000 O   0  0  0  0  0  0  0  0  0  0  0  0
   -3.2138   -1.5014    0.0000 C   0  0  0  0  0  0  0  0  0  0  0  0
   -3.9284   -1.9140    0.0000 N   0  0  0  0  0  0  0  0  0  0  0  0
    1.0727   -1.3349    0.0000 Na  0  0  0  0  0 15  0  0  0  0  0  0
   -1.4882    1.3644    0.0000 Na  0  0  0  0  0 15  0  0  0  0  0  0
  2  1  2  0
  3  2  1  0
  4  3  2  0
  5  4  1  0
  1  6  1  0
  6  5  2  0
  3  7  1  0
  7  8  2  0
  8  9  1  0
 10  9  2  0
 11 10  1  0
 12 11  2  0
 13 12  1  0
 14 13  2  0
  9 14  1  0
 10 15  1  0
 15 16  1  0
  4 17  1  0
 17 18  1  0
 15 19  2  0
 15 20  2  0
 17 21  2  0
 17 22  2  0
 23 12  1  0
 23 24  1  0
 23 25  2  0
 26  6  1  0
 26 27  3  0
M  CHG  6  16  -1  18  -1  23   1  24  -1  28   1  29   1
M  END
> <From>
www.bindingDB.org

> <BindingDB Reactant_set_id>
51527524

> <Ligand InChI>
InChI=1S/C15H10N2O8S2.2Na/c16-9-10-1-2-11(14(7-10)26(20,21)22)3-4-12-5-6-13(17(18)19)8-15(12)27(23,24)25;;/h1-8H,(H,20,21,22)(H,23,24,25);;/q;2*+1/p-2/b4-3+;;

> <Ligand InChI Key>
CTQPQDZZHANYGD-CZEFNJPISA-L

> <BindingDB MonomerID>
50614590

> <BindingDB Ligand Name>
CHEMBL5272279

> <Target Name>
DNA repair protein RAD51 homolog 1

> <Target Source Organism According to Curator or DataSource>
Homo sapiens

> <Ki (nM)>


> <IC50 (nM)>
 20000

> <Kd (nM)>


> <EC50 (nM)>


> <kon (M-1-s-1)>


> <koff (s-1)>


> <pH>


> <Temp C>


> <Curation/DataSource>
ChEMBL

> <Article DOI>


> <BindingDB Entry DOI>
10.7270/Q20G3QDN

> <PMID>
36990245

> <PubChem AID>


> <Patent Number>


> <Authors>
Demeyer, A; Fonteneau, L; Liennard, M; Foyer, C; Weigel, P; Laurent, AD; Lebreton, J; Fleury, F; Mathé-Allainmat, M

> <Date of publication>
5/1/2023

> <Date in BindingDB>
4/22/2024

> <Institution>
Nantes Universite

> <Link to Ligand in BindingDB>
http://www.bindingdb.org/bind/chemsearch/marvin/MolStructure.jsp?monomerid=50614590

> <Link to Ligand-Target Pair in BindingDB>
http://www.bindingdb.org/rwd/jsp/dbsearch/PrimarySearch_ki.jsp?energyterm=kJ/mole&tag=pol&polymerid=4676&target=DNA+repair+protein+RAD51+homolog+1&column=ki&startPg=0&Increment=50&submit=Search

> <Link to Ligand-Target Pair in BindingDB>
http://www.bindingdb.org/rwd/jsp/dbsearch/PrimarySearch_ki.jsp?energyterm=kJ/mole&tag=r21&monomerid=50614590&enzyme=DNA+repair+protein+RAD51+homolog+1&column=ki&startPg=0&Increment=50&submit=Search

> <Ligand HET ID in PDB>


> <PDB ID(s) for Ligand-Target Complex>


> <PubChem CID of Ligand>
172676070

> <PubChem SID of Ligand>
494504338

> <ChEBI ID of Ligand>


> <ChEMBL ID of Ligand>


> <DrugBank ID of Ligand>


> <IUPHAR_GRAC ID of Ligand>


> <KEGG ID of Ligand>


> <ZINC ID of Ligand>


> <Number of Protein Chains in Target (bigger than 1 implies a multichain complex)>
1

> <BindingDB Target Chain Sequence>
MAMQMQLEANADTSVEEESFGPQPISRLEQCGINANDVKKLEEAGFHTVEAVAYAPKKELINIKGISEAKADKILAEAAKLVPMGFTTATEFHQRRSEIIQITTGSKELDKLLQGGIETGSITEMFGEFRTGKTQICHTLAVTCQLPIDRGGGEGKAMYIDTEGTFRPERLLAVAERYGLSGSDVLDNVAYARAFNTDHQTQLLYQASAMMVESRYALLIVDSATALYRTDYSGRGELSARQMHLARFLRMLLRLADEFGVAVVITNQVVAQVDGAAMFAADPKKPIGGNIIAHASTTRLYLRKGRGETRICKIYDSPCLPEAEAMFAINADGVGDAKD

> <PDB ID(s) of Target Chain>


> <UniProt (SwissProt) Recommended Name of Target Chain>
DNA repair protein RAD51 homolog 1

> <UniProt (SwissProt) Entry Name of Target Chain>
RAD51_HUMAN

> <UniProt (SwissProt) Primary ID of Target Chain>
Q06609

> <UniProt (SwissProt) Secondary ID(s) of Target Chain>
B0FXP0 B2R8T6 Q6FHX9 Q6ZNA8 Q9BV60

> <UniProt (SwissProt) Alternative ID(s) of Target Chain>


> <UniProt (TrEMBL) Submitted Name of Target Chain>


> <UniProt (TrEMBL) Entry Name of Target Chain>


> <UniProt (TrEMBL) Primary ID of Target Chain>


> <UniProt (TrEMBL) Secondary ID(s) of Target Chain>


> <UniProt (TrEMBL) Alternative ID(s) of Target Chain>


$$$$
 
     RDKit          2D

 20 21  0  0  0  0  0  0  0  0999 V2000
   -1.7845   -1.0290    0.0000 C   0  0  0  0  0  0  0  0  0  0  0  0
   -1.0699   -0.6167    0.0000 C   0  0  0  0  0  0  0  0  0  0  0  0
   -0.3580   -1.0286    0.0000 C   0  0  0  0  0  0  0  0  0  0  0  0
   -0.3580   -1.8538    0.0000 C   0  0  0  0  0  0  0  0  0  0  0  0
   -1.0681   -2.2656    0.0000 C   0  0  0  0  0  0  0  0  0  0  0  0
   -1.7845   -1.8575    0.0000 C   0  0  0  0  0  0  0  0  0  0  0  0
    0.3565   -0.6160    0.0000 C   0  0  0  0  0  0  0  0  0  0  0  0
    1.0711   -1.0286    0.0000 C   0  0  0  0  0  0  0  0  0  0  0  0
    1.7858   -0.6160    0.0000 C   0  0  0  0  0  0  0  0  0  0  0  0
    1.7860    0.2091    0.0000 C   0  0  0  0  0  0  0  0  0  0  0  0
    2.4989    0.6198    0.0000 C   0  0  0  0  0  0  0  0  0  0  0  0
    3.2138    0.2071    0.0000 C   0  0  0  0  0  0  0  0  0  0  0  0
    3.2153   -0.6139    0.0000 C   0  0  0  0  0  0  0  0  0  0  0  0
    2.5035   -1.0303    0.0000 C   0  0  0  0  0  0  0  0  0  0  0  0
   -2.4991   -2.2701    0.0000 N   0  0  0  0  0  0  0  0  0  0  0  0
    3.9284    0.6197    0.0000 N   0  0  0  0  0  0  0  0  0  0  0  0
    3.9284    1.4449    0.0000 N   0  0  0  0  0  0  0  0  0  0  0  0
    3.9284    2.2701    0.0000 N   0  0  0  0  0  0  0  0  0  0  0  0
   -3.2138   -1.8575    0.0000 N   0  0  0  0  0  0  0  0  0  0  0  0
   -3.9284   -1.4449    0.0000 N   0  0  0  0  0  0  0  0  0  0  0  0
  2  1  2  0
  3  2  1  0
  4  3  2  0
  5  4  1  0
  1  6  1  0
  6  5  2  0
  3  7  1  0
  7  8  2  0
  8  9  1  0
 10  9  2  0
 11 10  1  0
 12 11  2  0
 13 12  1  0
 14 13  2  0
  9 14  1  0
  6 15  1  0
 12 16  1  0
 16 17  2  0
 17 18  2  0
 15 19  2  0
 19 20  2  0
M  CHG  4  17   1  18  -1  19   1  20  -1
M  END
> <From>
www.bindingDB.org

> <BindingDB Reactant_set_id>
51527525

> <Ligand InChI>
InChI=1S/C14H10N6/c15-19-17-13-7-3-11(4-8-13)1-2-12-5-9-14(10-6-12)18-20-16/h1-10H/b2-1+

> <Ligand InChI Key>
HWEONUWVYWIJPF-OWOJBTEDSA-N

> <BindingDB MonomerID>
50614591

> <BindingDB Ligand Name>
CHEMBL5273057

> <Target Name>
DNA repair protein RAD51 homolog 1

> <Target Source Organism According to Curator or DataSource>
Homo sapiens

> <Ki (nM)>


> <IC50 (nM)>
>50000

> <Kd (nM)>


> <EC50 (nM)>


> <kon (M-1-s-1)>


> <koff (s-1)>


> <pH>


> <Temp C>


> <Curation/DataSource>
ChEMBL

> <Article DOI>


> <BindingDB Entry DOI>
10.7270/Q20G3QDN

> <PMID>
36990245

> <PubChem AID>


> <Patent Number>


> <Authors>
n/a

> <Date of publication>
5/1/2023

> <Date in BindingDB>
4/22/2024

> <Institution>
n/a

> <Link to Ligand in BindingDB>
http://www.bindingdb.org/bind/chemsearch/marvin/MolStructure.jsp?monomerid=50614591

> <Link to Ligand-Target Pair in BindingDB>
http://www.bindingdb.org/jsp/dbsearch/PrimarySearch_ki.jsp?energyterm=kJ/mole&tag=pol&polymerid=4676&target=DNA+repair+protein+RAD51+homolog+1&column=ki&startPg=0&Increment=50&submit=Search

> <Link to Ligand-Target Pair in BindingDB>
http://www.bindingdb.org/jsp/dbsearch/PrimarySearch_ki.jsp?energyterm=kJ/mole&tag=r21&monomerid=50614591&enzyme=DNA+repair+protein+RAD51+homolog+1&column=ki&startPg=0&Increment=50&submit=Search

> <Ligand HET ID in PDB>


> <PDB ID(s) for Ligand-Target Complex>


> <PubChem CID of Ligand>
5375803

> <PubChem SID of Ligand>
494504339

> <ChEBI ID of Ligand>


> <ChEMBL ID of Ligand>


> <DrugBank ID of Ligand>


> <IUPHAR_GRAC ID of Ligand>


> <KEGG ID of Ligand>


> <ZINC ID of Ligand>


> <Number of Protein Chains in Target (bigger than 1 implies a multichain complex)>
1

> <BindingDB Target Chain Sequence>
MAMQMQLEANADTSVEEESFGPQPISRLEQCGINANDVKKLEEAGFHTVEAVAYAPKKELINIKGISEAKADKILAEAAKLVPMGFTTATEFHQRRSEIIQITTGSKELDKLLQGGIETGSITEMFGEFRTGKTQICHTLAVTCQLPIDRGGGEGKAMYIDTEGTFRPERLLAVAERYGLSGSDVLDNVAYARAFNTDHQTQLLYQASAMMVESRYALLIVDSATALYRTDYSGRGELSARQMHLARFLRMLLRLADEFGVAVVITNQVVAQVDGAAMFAADPKKPIGGNIIAHASTTRLYLRKGRGETRICKIYDSPCLPEAEAMFAINADGVGDAKD

> <PDB ID(s) of Target Chain>
1N0W,5JZC,5NP7,5NWL,8BQ2,8BR2,8BSC,8GYK,8PBC,8PBD

> <UniProt (SwissProt) Recommended Name of Target Chain>
DNA repair protein RAD51 homolog 1

> <UniProt (SwissProt) Entry Name of Target Chain>
RAD51_HUMAN

> <UniProt (SwissProt) Primary ID of Target Chain>
Q06609

> <UniProt (SwissProt) Secondary ID(s) of Target Chain>
B0FXP0 B2R8T6 Q6FHX9 Q6ZNA8 Q9BV60

> <UniProt (SwissProt) Alternative ID(s) of Target Chain>


> <UniProt (TrEMBL) Submitted Name of Target Chain>


> <UniProt (TrEMBL) Entry Name of Target Chain>


> <UniProt (TrEMBL) Primary ID of Target Chain>


> <UniProt (TrEMBL) Secondary ID(s) of Target Chain>


> <UniProt (TrEMBL) Alternative ID(s) of Target Chain>


$$$$

     RDKit          2D

 46 47  0  0  0  0  0  0  0  0999 V2000
   -2.4991   -0.2038    0.0000 C   0  0  0  0  0  0  0  0  0  0  0  0
   -1.7845    0.2084    0.0000 C   0  0  0  0  0  0  0  0  0  0  0  0
   -1.0727   -0.2034    0.0000 C   0  0  0  0  0  0  0  0  0  0  0  0
   -1.0727   -1.0286    0.0000 C   0  0  0  0  0  0  0  0  0  0  0  0
   -1.7827   -1.4404    0.0000 C   0  0  0  0  0  0  0  0  0  0  0  0
   -2.4991   -1.0323    0.0000 C   0  0  0  0  0  0  0  0  0  0  0  0
   -0.3580    0.2091    0.0000 C   0  0  0  0  0  0  0  0  0  0  0  0
    0.3565   -0.2034    0.0000 C   0  0  0  0  0  0  0  0  0  0  0  0
    1.0711    0.2091    0.0000 C   0  0  0  0  0  0  0  0  0  0  0  0
    1.0714    1.0344    0.0000 C   0  0  0  0  0  0  0  0  0  0  0  0
    1.7843    1.4451    0.0000 C   0  0  0  0  0  0  0  0  0  0  0  0
    2.4991    1.0323    0.0000 C   0  0  0  0  0  0  0  0  0  0  0  0
    2.5007    0.2112    0.0000 C   0  0  0  0  0  0  0  0  0  0  0  0
    1.7889   -0.2052    0.0000 C   0  0  0  0  0  0  0  0  0  0  0  0
    0.3568    1.4469    0.0000 S   0  0  0  0  0  0  0  0  0  0  0  0
   -0.3578    1.0344    0.0000 O   0  0  0  0  0  0  0  0  0  0  0  0
   -0.3580   -1.4412    0.0000 S   0  0  0  0  0  0  0  0  0  0  0  0
    0.3565   -1.0286    0.0000 O   0  0  0  0  0  0  0  0  0  0  0  0
    0.7701    2.1629    0.0000 O   0  0  0  0  0  0  0  0  0  0  0  0
   -0.0550    2.1629    0.0000 O   0  0  0  0  0  0  0  0  0  0  0  0
   -0.7714   -2.1571    0.0000 O   0  0  0  0  0  0  0  0  0  0  0  0
    0.0537   -2.1571    0.0000 O   0  0  0  0  0  0  0  0  0  0  0  0
   -3.2138   -1.4449    0.0000 N   0  0  0  0  0  0  0  0  0  0  0  0
    3.2138    1.4449    0.0000 N   0  0  0  0  0  0  0  0  0  0  0  0
   -3.9284   -1.0323    0.0000 C   0  0  0  0  0  0  0  0  0  0  0  0
    3.9284    1.0323    0.0000 C   0  0  0  0  0  0  0  0  0  0  0  0
   -4.6430   -1.4449    0.0000 C   0  0  0  0  0  0  0  0  0  0  0  0
   -3.9284   -0.2071    0.0000 O   0  0  0  0  0  0  0  0  0  0  0  0
    4.6430    1.4449    0.0000 C   0  0  0  0  0  0  0  0  0  0  0  0
    3.9284    0.2071    0.0000 O   0  0  0  0  0  0  0  0  0  0  0  0
    4.6432    2.2701    0.0000 C   0  0  0  0  0  0  0  0  0  0  0  0
    5.3561    2.6808    0.0000 C   0  0  0  0  0  0  0  0  0  0  0  0
    6.0709    2.2681    0.0000 C   0  0  0  0  0  0  0  0  0  0  0  0
    6.0726    1.4470    0.0000 C   0  0  0  0  0  0  0  0  0  0  0  0
    5.3608    1.0305    0.0000 C   0  0  0  0  0  0  0  0  0  0  0  0
   -4.6433   -2.2701    0.0000 C   0  0  0  0  0  0  0  0  0  0  0  0
   -5.3561   -2.6808    0.0000 C   0  0  0  0  0  0  0  0  0  0  0  0
   -6.0710   -2.2681    0.0000 C   0  0  0  0  0  0  0  0  0  0  0  0
   -6.0726   -1.4470    0.0000 C   0  0  0  0  0  0  0  0  0  0  0  0
   -5.3608   -1.0305    0.0000 C   0  0  0  0  0  0  0  0  0  0  0  0
   -6.7856   -2.6807    0.0000 O   0  0  0  0  0  0  0  0  0  0  0  0
   -7.5003   -2.2681    0.0000 C   0  0  0  0  0  0  0  0  0  0  0  0
    6.7856    2.6808    0.0000 O   0  0  0  0  0  0  0  0  0  0  0  0
    7.5003    2.2681    0.0000 C   0  0  0  0  0  0  0  0  0  0  0  0
    1.1766   -1.4867    0.0000 Na  0  0  0  0  0 15  0  0  0  0  0  0
   -1.4882    1.3165    0.0000 Na  0  0  0  0  0 15  0  0  0  0  0  0
  2  1  2  0
  3  2  1  0
  4  3  2  0
  5  4  1  0
  1  6  1  0
  6  5  2  0
  3  7  1  0
  7  8  2  0
  8  9  1  0
 10  9  2  0
 11 10  1  0
 12 11  2  0
 13 12  1  0
 14 13  2  0
  9 14  1  0
 10 15  1  0
 15 16  1  0
  4 17  1  0
 17 18  1  0
 15 19  2  0
 15 20  2  0
 17 21  2  0
 17 22  2  0
  6 23  1  0
 12 24  1  0
 23 25  1  0
 24 26  1  0
 25 27  1  0
 25 28  2  0
 26 29  1  0
 26 30  2  0
 31 29  2  0
 32 31  1  0
 33 32  2  0
 34 33  1  0
 35 34  2  0
 29 35  1  0
 36 27  2  0
 37 36  1  0
 38 37  2  0
 39 38  1  0
 40 39  2  0
 27 40  1  0
 38 41  1  0
 41 42  1  0
 33 43  1  0
 43 44  1  0
M  CHG  4  16  -1  18  -1  45   1  46   1
M  END
> <From>
www.bindingDB.org

> <BindingDB Reactant_set_id>
51527526

> <Ligand InChI>
InChI=1S/C30H26N2O10S2.2Na/c1-41-25-13-7-21(8-14-25)29(33)31-23-11-5-19(27(17-23)43(35,36)37)3-4-20-6-12-24(18-28(20)44(38,39)40)32-30(34)22-9-15-26(42-2)16-10-22;;/h3-18H,1-2H3,(H,31,33)(H,32,34)(H,35,36,37)(H,38,39,40);;/q;2*+1/p-2/b4-3+;;

> <Ligand InChI Key>
JAZBNZMFCHRNQP-CZEFNJPISA-L

> <BindingDB MonomerID>
50614584

> <BindingDB Ligand Name>
CHEMBL5277728

> <Target Name>
DNA repair protein RAD51 homolog 1

> <Target Source Organism According to Curator or DataSource>
Homo sapiens

> <Ki (nM)>


> <IC50 (nM)>
 6500

> <Kd (nM)>


> <EC50 (nM)>


> <kon (M-1-s-1)>


> <koff (s-1)>


> <pH>


> <Temp C>


> <Curation/DataSource>
ChEMBL

> <Article DOI>


> <BindingDB Entry DOI>
10.7270/Q20G3QDN

> <PMID>
36990245

> <PubChem AID>


> <Patent Number>


> <Authors>
Demeyer, A; Fonteneau, L; Liennard, M; Foyer, C; Weigel, P; Laurent, AD; Lebreton, J; Fleury, F; Mathé-Allainmat, M

> <Date of publication>
5/1/2023

> <Date in BindingDB>
4/22/2024

> <Institution>
Nantes Universite

> <Link to Ligand in BindingDB>
http://www.bindingdb.org/bind/chemsearch/marvin/MolStructure.jsp?monomerid=50614584

> <Link to Ligand-Target Pair in BindingDB>
http://www.bindingdb.org/rwd/jsp/dbsearch/PrimarySearch_ki.jsp?energyterm=kJ/mole&tag=pol&polymerid=4676&target=DNA+repair+protein+RAD51+homolog+1&column=ki&startPg=0&Increment=50&submit=Search

> <Link to Ligand-Target Pair in BindingDB>
http://www.bindingdb.org/rwd/jsp/dbsearch/PrimarySearch_ki.jsp?energyterm=kJ/mole&tag=r21&monomerid=50614584&enzyme=DNA+repair+protein+RAD51+homolog+1&column=ki&startPg=0&Increment=50&submit=Search

> <Ligand HET ID in PDB>


> <PDB ID(s) for Ligand-Target Complex>


> <PubChem CID of Ligand>
5893300

> <PubChem SID of Ligand>
494504332

> <ChEBI ID of Ligand>


> <ChEMBL ID of Ligand>


> <DrugBank ID of Ligand>


> <IUPHAR_GRAC ID of Ligand>


> <KEGG ID of Ligand>


> <ZINC ID of Ligand>


> <Number of Protein Chains in Target (bigger than 1 implies a multichain complex)>
1

> <BindingDB Target Chain Sequence>
MAMQMQLEANADTSVEEESFGPQPISRLEQCGINANDVKKLEEAGFHTVEAVAYAPKKELINIKGISEAKADKILAEAAKLVPMGFTTATEFHQRRSEIIQITTGSKELDKLLQGGIETGSITEMFGEFRTGKTQICHTLAVTCQLPIDRGGGEGKAMYIDTEGTFRPERLLAVAERYGLSGSDVLDNVAYARAFNTDHQTQLLYQASAMMVESRYALLIVDSATALYRTDYSGRGELSARQMHLARFLRMLLRLADEFGVAVVITNQVVAQVDGAAMFAADPKKPIGGNIIAHASTTRLYLRKGRGETRICKIYDSPCLPEAEAMFAINADGVGDAKD

> <PDB ID(s) of Target Chain>


> <UniProt (SwissProt) Recommended Name of Target Chain>
DNA repair protein RAD51 homolog 1

> <UniProt (SwissProt) Entry Name of Target Chain>
RAD51_HUMAN

> <UniProt (SwissProt) Primary ID of Target Chain>
Q06609

> <UniProt (SwissProt) Secondary ID(s) of Target Chain>
B0FXP0 B2R8T6 Q6FHX9 Q6ZNA8 Q9BV60

> <UniProt (SwissProt) Alternative ID(s) of Target Chain>


> <UniProt (TrEMBL) Submitted Name of Target Chain>


> <UniProt (TrEMBL) Entry Name of Target Chain>


> <UniProt (TrEMBL) Primary ID of Target Chain>


> <UniProt (TrEMBL) Secondary ID(s) of Target Chain>


> <UniProt (TrEMBL) Alternative ID(s) of Target Chain>


$$$$

     RDKit          2D

 44 45  0  0  0  0  0  0  0  0999 V2000
   -2.4991   -0.2038    0.0000 C   0  0  0  0  0  0  0  0  0  0  0  0
   -1.7845    0.2084    0.0000 C   0  0  0  0  0  0  0  0  0  0  0  0
   -1.0726   -0.2034    0.0000 C   0  0  0  0  0  0  0  0  0  0  0  0
   -1.0726   -1.0286    0.0000 C   0  0  0  0  0  0  0  0  0  0  0  0
   -1.7827   -1.4404    0.0000 C   0  0  0  0  0  0  0  0  0  0  0  0
   -2.4991   -1.0323    0.0000 C   0  0  0  0  0  0  0  0  0  0  0  0
   -3.2137   -1.4448    0.0000 N   0  0  0  0  0  0  0  0  0  0  0  0
   -3.9284   -1.0323    0.0000 S   0  0  0  0  0  0  0  0  0  0  0  0
   -4.6430   -1.4448    0.0000 C   0  0  0  0  0  0  0  0  0  0  0  0
   -4.6432   -2.2701    0.0000 C   0  0  0  0  0  0  0  0  0  0  0  0
   -5.3561   -2.6808    0.0000 C   0  0  0  0  0  0  0  0  0  0  0  0
   -6.0709   -2.2681    0.0000 C   0  0  0  0  0  0  0  0  0  0  0  0
   -6.0726   -1.4470    0.0000 C   0  0  0  0  0  0  0  0  0  0  0  0
   -5.3607   -1.0305    0.0000 C   0  0  0  0  0  0  0  0  0  0  0  0
   -0.3580   -1.4411    0.0000 S   0  0  0  0  0  0  0  0  0  0  0  0
    0.3565   -1.0286    0.0000 O   0  0  0  0  0  0  0  0  0  0  0  0
   -0.7714   -2.1571    0.0000 O   0  0  0  0  0  0  0  0  0  0  0  0
    0.0537   -2.1571    0.0000 O   0  0  0  0  0  0  0  0  0  0  0  0
   -0.3580    0.2091    0.0000 C   0  0  0  0  0  0  0  0  0  0  0  0
    0.3565   -0.2034    0.0000 C   0  0  0  0  0  0  0  0  0  0  0  0
    1.0712    0.2091    0.0000 C   0  0  0  0  0  0  0  0  0  0  0  0
    1.0714    1.0344    0.0000 C   0  0  0  0  0  0  0  0  0  0  0  0
    1.7843    1.4451    0.0000 C   0  0  0  0  0  0  0  0  0  0  0  0
    2.4991    1.0323    0.0000 C   0  0  0  0  0  0  0  0  0  0  0  0
    2.5007    0.2112    0.0000 C   0  0  0  0  0  0  0  0  0  0  0  0
    1.7889   -0.2052    0.0000 C   0  0  0  0  0  0  0  0  0  0  0  0
    3.2138    1.4449    0.0000 N   0  0  0  0  0  0  0  0  0  0  0  0
    3.9284    1.0323    0.0000 S   0  0  0  0  0  0  0  0  0  0  0  0
    4.6430    1.4449    0.0000 C   0  0  0  0  0  0  0  0  0  0  0  0
    4.6433    2.2701    0.0000 C   0  0  0  0  0  0  0  0  0  0  0  0
    5.3561    2.6808    0.0000 C   0  0  0  0  0  0  0  0  0  0  0  0
    6.0710    2.2681    0.0000 C   0  0  0  0  0  0  0  0  0  0  0  0
    6.0726    1.4471    0.0000 C   0  0  0  0  0  0  0  0  0  0  0  0
    5.3608    1.0306    0.0000 C   0  0  0  0  0  0  0  0  0  0  0  0
    0.3568    1.4469    0.0000 S   0  0  0  0  0  0  0  0  0  0  0  0
   -0.3577    1.0344    0.0000 O   0  0  0  0  0  0  0  0  0  0  0  0
    0.7702    2.1629    0.0000 O   0  0  0  0  0  0  0  0  0  0  0  0
   -0.0549    2.1629    0.0000 O   0  0  0  0  0  0  0  0  0  0  0  0
    3.5150    0.3163    0.0000 O   0  0  0  0  0  0  0  0  0  0  0  0
    4.3402    0.3163    0.0000 O   0  0  0  0  0  0  0  0  0  0  0  0
   -3.5150   -0.3163    0.0000 O   0  0  0  0  0  0  0  0  0  0  0  0
   -4.3402   -0.3163    0.0000 O   0  0  0  0  0  0  0  0  0  0  0  0
    1.1766   -1.4867    0.0000 Na  0  0  0  0  0 15  0  0  0  0  0  0
   -1.6612    1.3857    0.0000 Na  0  0  0  0  0 15  0  0  0  0  0  0
  2  1  2  0
  3  2  1  0
  4  3  2  0
  5  4  1  0
  6  5  2  0
  1  6  1  0
  6  7  1  0
  7  8  1  0
  8  9  1  0
 10  9  2  0
 11 10  1  0
 12 11  2  0
 13 12  1  0
 14 13  2  0
  9 14  1  0
  4 15  1  0
 15 16  1  0
 15 17  2  0
 15 18  2  0
  3 19  1  0
 19 20  2  0
 20 21  1  0
 22 21  2  0
 23 22  1  0
 24 23  2  0
 25 24  1  0
 26 25  2  0
 21 26  1  0
 24 27  1  0
 27 28  1  0
 28 29  1  0
 30 29  2  0
 31 30  1  0
 32 31  2  0
 33 32  1  0
 34 33  2  0
 29 34  1  0
 22 35  1  0
 35 36  1  0
 35 37  2  0
 35 38  2  0
 28 39  2  0
 28 40  2  0
  8 41  2  0
  8 42  2  0
M  CHG  4  16  -1  36  -1  43   1  44   1
M  END
> <From>
www.bindingDB.org

> <BindingDB Reactant_set_id>
51527527

> <Ligand InChI>
InChI=1S/C26H22N2O10S4.2Na/c29-39(30,23-7-3-1-4-8-23)27-21-15-13-19(25(17-21)41(33,34)35)11-12-20-14-16-22(18-26(20)42(36,37)38)28-40(31,32)24-9-5-2-6-10-24;;/h1-18,27-28H,(H,33,34,35)(H,36,37,38);;/q;2*+1/p-2/b12-11+;;

> <Ligand InChI Key>
FJDAWCXAJNESBF-YHPRVSEPSA-L

> <BindingDB MonomerID>
50614592

> <BindingDB Ligand Name>
CHEMBL5273677

> <Target Name>
DNA repair protein RAD51 homolog 1

> <Target Source Organism According to Curator or DataSource>
Homo sapiens

> <Ki (nM)>


> <IC50 (nM)>
 41300

> <Kd (nM)>


> <EC50 (nM)>


> <kon (M-1-s-1)>


> <koff (s-1)>


> <pH>


> <Temp C>


> <Curation/DataSource>
ChEMBL

> <Article DOI>


> <BindingDB Entry DOI>
10.7270/Q20G3QDN

> <PMID>
36990245

> <PubChem AID>


> <Patent Number>


> <Authors>
Demeyer, A; Fonteneau, L; Liennard, M; Foyer, C; Weigel, P; Laurent, AD; Lebreton, J; Fleury, F; Mathé-Allainmat, M

> <Date of publication>
5/1/2023

> <Date in BindingDB>
4/22/2024

> <Institution>
Nantes Universite

> <Link to Ligand in BindingDB>
http://www.bindingdb.org/bind/chemsearch/marvin/MolStructure.jsp?monomerid=50614592

> <Link to Ligand-Target Pair in BindingDB>
http://www.bindingdb.org/rwd/jsp/dbsearch/PrimarySearch_ki.jsp?energyterm=kJ/mole&tag=pol&polymerid=4676&target=DNA+repair+protein+RAD51+homolog+1&column=ki&startPg=0&Increment=50&submit=Search

> <Link to Ligand-Target Pair in BindingDB>
http://www.bindingdb.org/rwd/jsp/dbsearch/PrimarySearch_ki.jsp?energyterm=kJ/mole&tag=r21&monomerid=50614592&enzyme=DNA+repair+protein+RAD51+homolog+1&column=ki&startPg=0&Increment=50&submit=Search

> <Ligand HET ID in PDB>


> <PDB ID(s) for Ligand-Target Complex>


> <PubChem CID of Ligand>
5864365

> <PubChem SID of Ligand>
494504340

> <ChEBI ID of Ligand>


> <ChEMBL ID of Ligand>


> <DrugBank ID of Ligand>


> <IUPHAR_GRAC ID of Ligand>


> <KEGG ID of Ligand>


> <ZINC ID of Ligand>


> <Number of Protein Chains in Target (bigger than 1 implies a multichain complex)>
1

> <BindingDB Target Chain Sequence>
MAMQMQLEANADTSVEEESFGPQPISRLEQCGINANDVKKLEEAGFHTVEAVAYAPKKELINIKGISEAKADKILAEAAKLVPMGFTTATEFHQRRSEIIQITTGSKELDKLLQGGIETGSITEMFGEFRTGKTQICHTLAVTCQLPIDRGGGEGKAMYIDTEGTFRPERLLAVAERYGLSGSDVLDNVAYARAFNTDHQTQLLYQASAMMVESRYALLIVDSATALYRTDYSGRGELSARQMHLARFLRMLLRLADEFGVAVVITNQVVAQVDGAAMFAADPKKPIGGNIIAHASTTRLYLRKGRGETRICKIYDSPCLPEAEAMFAINADGVGDAKD

> <PDB ID(s) of Target Chain>


> <UniProt (SwissProt) Recommended Name of Target Chain>
DNA repair protein RAD51 homolog 1

> <UniProt (SwissProt) Entry Name of Target Chain>
RAD51_HUMAN

> <UniProt (SwissProt) Primary ID of Target Chain>
Q06609

> <UniProt (SwissProt) Secondary ID(s) of Target Chain>
B0FXP0 B2R8T6 Q6FHX9 Q6ZNA8 Q9BV60

> <UniProt (SwissProt) Alternative ID(s) of Target Chain>


> <UniProt (TrEMBL) Submitted Name of Target Chain>


> <UniProt (TrEMBL) Entry Name of Target Chain>


> <UniProt (TrEMBL) Primary ID of Target Chain>


> <UniProt (TrEMBL) Secondary ID(s) of Target Chain>


> <UniProt (TrEMBL) Alternative ID(s) of Target Chain>


$$$$

     RDKit          2D

 46 47  0  0  0  0  0  0  0  0999 V2000
   -2.4991   -0.2038    0.0000 C   0  0  0  0  0  0  0  0  0  0  0  0
   -1.7845    0.2084    0.0000 C   0  0  0  0  0  0  0  0  0  0  0  0
   -1.0726   -0.2034    0.0000 C   0  0  0  0  0  0  0  0  0  0  0  0
   -1.0726   -1.0286    0.0000 C   0  0  0  0  0  0  0  0  0  0  0  0
   -1.7827   -1.4404    0.0000 C   0  0  0  0  0  0  0  0  0  0  0  0
   -2.4991   -1.0323    0.0000 C   0  0  0  0  0  0  0  0  0  0  0  0
   -3.2137   -1.4449    0.0000 N   0  0  0  0  0  0  0  0  0  0  0  0
   -3.9284   -1.0323    0.0000 S   0  0  0  0  0  0  0  0  0  0  0  0
   -4.6430   -1.4449    0.0000 C   0  0  0  0  0  0  0  0  0  0  0  0
   -4.6432   -2.2701    0.0000 C   0  0  0  0  0  0  0  0  0  0  0  0
   -5.3561   -2.6808    0.0000 C   0  0  0  0  0  0  0  0  0  0  0  0
   -6.0709   -2.2681    0.0000 C   0  0  0  0  0  0  0  0  0  0  0  0
   -6.0726   -1.4470    0.0000 C   0  0  0  0  0  0  0  0  0  0  0  0
   -5.3607   -1.0305    0.0000 C   0  0  0  0  0  0  0  0  0  0  0  0
   -0.3580   -1.4412    0.0000 S   0  0  0  0  0  0  0  0  0  0  0  0
    0.3565   -1.0286    0.0000 O   0  0  0  0  0  0  0  0  0  0  0  0
   -0.7714   -2.1572    0.0000 O   0  0  0  0  0  0  0  0  0  0  0  0
    0.0537   -2.1572    0.0000 O   0  0  0  0  0  0  0  0  0  0  0  0
   -0.3580    0.2091    0.0000 C   0  0  0  0  0  0  0  0  0  0  0  0
    0.3565   -0.2034    0.0000 C   0  0  0  0  0  0  0  0  0  0  0  0
    1.0712    0.2091    0.0000 C   0  0  0  0  0  0  0  0  0  0  0  0
    1.0714    1.0343    0.0000 C   0  0  0  0  0  0  0  0  0  0  0  0
    1.7843    1.4450    0.0000 C   0  0  0  0  0  0  0  0  0  0  0  0
    2.4991    1.0323    0.0000 C   0  0  0  0  0  0  0  0  0  0  0  0
    2.5007    0.2112    0.0000 C   0  0  0  0  0  0  0  0  0  0  0  0
    1.7889   -0.2052    0.0000 C   0  0  0  0  0  0  0  0  0  0  0  0
    3.2138    1.4449    0.0000 N   0  0  0  0  0  0  0  0  0  0  0  0
    3.9284    1.0323    0.0000 S   0  0  0  0  0  0  0  0  0  0  0  0
    4.6430    1.4449    0.0000 C   0  0  0  0  0  0  0  0  0  0  0  0
    4.6433    2.2701    0.0000 C   0  0  0  0  0  0  0  0  0  0  0  0
    5.3561    2.6808    0.0000 C   0  0  0  0  0  0  0  0  0  0  0  0
    6.0710    2.2681    0.0000 C   0  0  0  0  0  0  0  0  0  0  0  0
    6.0726    1.4470    0.0000 C   0  0  0  0  0  0  0  0  0  0  0  0
    5.3608    1.0305    0.0000 C   0  0  0  0  0  0  0  0  0  0  0  0
    0.3568    1.4469    0.0000 S   0  0  0  0  0  0  0  0  0  0  0  0
   -0.3577    1.0343    0.0000 O   0  0  0  0  0  0  0  0  0  0  0  0
    0.7702    2.1629    0.0000 O   0  0  0  0  0  0  0  0  0  0  0  0
   -0.0549    2.1629    0.0000 O   0  0  0  0  0  0  0  0  0  0  0  0
    3.5150    0.3163    0.0000 O   0  0  0  0  0  0  0  0  0  0  0  0
    4.3402    0.3163    0.0000 O   0  0  0  0  0  0  0  0  0  0  0  0
   -3.5150   -0.3163    0.0000 O   0  0  0  0  0  0  0  0  0  0  0  0
   -4.3402   -0.3163    0.0000 O   0  0  0  0  0  0  0  0  0  0  0  0
   -6.7856   -2.6807    0.0000 C   0  0  0  0  0  0  0  0  0  0  0  0
    6.7856    2.6807    0.0000 C   0  0  0  0  0  0  0  0  0  0  0  0
   -1.2805    1.3856    0.0000 Na  0  0  0  0  0 15  0  0  0  0  0  0
    1.3843   -1.3830    0.0000 Na  0  0  0  0  0 15  0  0  0  0  0  0
  2  1  2  0
  3  2  1  0
  4  3  2  0
  5  4  1  0
  6  5  2  0
  1  6  1  0
  6  7  1  0
  7  8  1  0
  8  9  1  0
 10  9  2  0
 11 10  1  0
 12 11  2  0
 13 12  1  0
 14 13  2  0
  9 14  1  0
  4 15  1  0
 15 16  1  0
 15 17  2  0
 15 18  2  0
  3 19  1  0
 19 20  2  0
 20 21  1  0
 22 21  2  0
 23 22  1  0
 24 23  2  0
 25 24  1  0
 26 25  2  0
 21 26  1  0
 24 27  1  0
 27 28  1  0
 28 29  1  0
 30 29  2  0
 31 30  1  0
 32 31  2  0
 33 32  1  0
 34 33  2  0
 29 34  1  0
 22 35  1  0
 35 36  1  0
 35 37  2  0
 35 38  2  0
 28 39  2  0
 28 40  2  0
  8 41  2  0
  8 42  2  0
 12 43  1  0
 32 44  1  0
M  CHG  4  16  -1  36  -1  45   1  46   1
M  END
> <From>
www.bindingDB.org

> <BindingDB Reactant_set_id>
51527528

> <Ligand InChI>
InChI=1S/C28H26N2O10S4.2Na/c1-19-3-13-25(14-4-19)41(31,32)29-23-11-9-21(27(17-23)43(35,36)37)7-8-22-10-12-24(18-28(22)44(38,39)40)30-42(33,34)26-15-5-20(2)6-16-26;;/h3-18,29-30H,1-2H3,(H,35,36,37)(H,38,39,40);;/q;2*+1/p-2/b8-7+;;

> <Ligand InChI Key>
PRPAASSVDIZIJI-MIIBGCIDSA-L

> <BindingDB MonomerID>
50614593

> <BindingDB Ligand Name>
CHEMBL5278453

> <Target Name>
DNA repair protein RAD51 homolog 1

> <Target Source Organism According to Curator or DataSource>
Homo sapiens

> <Ki (nM)>


> <IC50 (nM)>
 29000

> <Kd (nM)>


> <EC50 (nM)>


> <kon (M-1-s-1)>


> <koff (s-1)>


> <pH>


> <Temp C>


> <Curation/DataSource>
ChEMBL

> <Article DOI>


> <BindingDB Entry DOI>
10.7270/Q20G3QDN

> <PMID>
36990245

> <PubChem AID>


> <Patent Number>


> <Authors>
Demeyer, A; Fonteneau, L; Liennard, M; Foyer, C; Weigel, P; Laurent, AD; Lebreton, J; Fleury, F; Mathé-Allainmat, M

> <Date of publication>
5/1/2023

> <Date in BindingDB>
4/22/2024

> <Institution>
Nantes Universite

> <Link to Ligand in BindingDB>
http://www.bindingdb.org/bind/chemsearch/marvin/MolStructure.jsp?monomerid=50614593

> <Link to Ligand-Target Pair in BindingDB>
http://www.bindingdb.org/rwd/jsp/dbsearch/PrimarySearch_ki.jsp?energyterm=kJ/mole&tag=pol&polymerid=4676&target=DNA+repair+protein+RAD51+homolog+1&column=ki&startPg=0&Increment=50&submit=Search

> <Link to Ligand-Target Pair in BindingDB>
http://www.bindingdb.org/rwd/jsp/dbsearch/PrimarySearch_ki.jsp?energyterm=kJ/mole&tag=r21&monomerid=50614593&enzyme=DNA+repair+protein+RAD51+homolog+1&column=ki&startPg=0&Increment=50&submit=Search

> <Ligand HET ID in PDB>


> <PDB ID(s) for Ligand-Target Complex>


> <PubChem CID of Ligand>
172676071

> <PubChem SID of Ligand>
494504341

> <ChEBI ID of Ligand>


> <ChEMBL ID of Ligand>


> <DrugBank ID of Ligand>


> <IUPHAR_GRAC ID of Ligand>


> <KEGG ID of Ligand>


> <ZINC ID of Ligand>


> <Number of Protein Chains in Target (bigger than 1 implies a multichain complex)>
1

> <BindingDB Target Chain Sequence>
MAMQMQLEANADTSVEEESFGPQPISRLEQCGINANDVKKLEEAGFHTVEAVAYAPKKELINIKGISEAKADKILAEAAKLVPMGFTTATEFHQRRSEIIQITTGSKELDKLLQGGIETGSITEMFGEFRTGKTQICHTLAVTCQLPIDRGGGEGKAMYIDTEGTFRPERLLAVAERYGLSGSDVLDNVAYARAFNTDHQTQLLYQASAMMVESRYALLIVDSATALYRTDYSGRGELSARQMHLARFLRMLLRLADEFGVAVVITNQVVAQVDGAAMFAADPKKPIGGNIIAHASTTRLYLRKGRGETRICKIYDSPCLPEAEAMFAINADGVGDAKD

> <PDB ID(s) of Target Chain>


> <UniProt (SwissProt) Recommended Name of Target Chain>
DNA repair protein RAD51 homolog 1

> <UniProt (SwissProt) Entry Name of Target Chain>
RAD51_HUMAN

> <UniProt (SwissProt) Primary ID of Target Chain>
Q06609

> <UniProt (SwissProt) Secondary ID(s) of Target Chain>
B0FXP0 B2R8T6 Q6FHX9 Q6ZNA8 Q9BV60

> <UniProt (SwissProt) Alternative ID(s) of Target Chain>


> <UniProt (TrEMBL) Submitted Name of Target Chain>


> <UniProt (TrEMBL) Entry Name of Target Chain>


> <UniProt (TrEMBL) Primary ID of Target Chain>


> <UniProt (TrEMBL) Secondary ID(s) of Target Chain>


> <UniProt (TrEMBL) Alternative ID(s) of Target Chain>


$$$$

     RDKit          2D

 50 51  0  0  0  0  0  0  0  0999 V2000
   -2.4991   -0.2038    0.0000 C   0  0  0  0  0  0  0  0  0  0  0  0
   -1.7845    0.2084    0.0000 C   0  0  0  0  0  0  0  0  0  0  0  0
   -1.0726   -0.2034    0.0000 C   0  0  0  0  0  0  0  0  0  0  0  0
   -1.0726   -1.0286    0.0000 C   0  0  0  0  0  0  0  0  0  0  0  0
   -1.7827   -1.4403    0.0000 C   0  0  0  0  0  0  0  0  0  0  0  0
   -2.4991   -1.0323    0.0000 C   0  0  0  0  0  0  0  0  0  0  0  0
   -3.2137   -1.4449    0.0000 N   0  0  0  0  0  0  0  0  0  0  0  0
   -3.9284   -1.0323    0.0000 S   0  0  0  0  0  0  0  0  0  0  0  0
   -4.6430   -1.4449    0.0000 C   0  0  0  0  0  0  0  0  0  0  0  0
   -4.6432   -2.2701    0.0000 C   0  0  0  0  0  0  0  0  0  0  0  0
   -5.3561   -2.6808    0.0000 C   0  0  0  0  0  0  0  0  0  0  0  0
   -6.0709   -2.2681    0.0000 C   0  0  0  0  0  0  0  0  0  0  0  0
   -6.0726   -1.4470    0.0000 C   0  0  0  0  0  0  0  0  0  0  0  0
   -5.3607   -1.0305    0.0000 C   0  0  0  0  0  0  0  0  0  0  0  0
   -0.3580   -1.4412    0.0000 S   0  0  0  0  0  0  0  0  0  0  0  0
    0.3565   -1.0286    0.0000 O   0  0  0  0  0  0  0  0  0  0  0  0
   -0.7714   -2.1572    0.0000 O   0  0  0  0  0  0  0  0  0  0  0  0
    0.0537   -2.1572    0.0000 O   0  0  0  0  0  0  0  0  0  0  0  0
   -0.3580    0.2091    0.0000 C   0  0  0  0  0  0  0  0  0  0  0  0
    0.3565   -0.2034    0.0000 C   0  0  0  0  0  0  0  0  0  0  0  0
    1.0712    0.2091    0.0000 C   0  0  0  0  0  0  0  0  0  0  0  0
    1.0714    1.0343    0.0000 C   0  0  0  0  0  0  0  0  0  0  0  0
    1.7843    1.4450    0.0000 C   0  0  0  0  0  0  0  0  0  0  0  0
    2.4991    1.0323    0.0000 C   0  0  0  0  0  0  0  0  0  0  0  0
    2.5007    0.2112    0.0000 C   0  0  0  0  0  0  0  0  0  0  0  0
    1.7889   -0.2052    0.0000 C   0  0  0  0  0  0  0  0  0  0  0  0
    3.2138    1.4449    0.0000 N   0  0  0  0  0  0  0  0  0  0  0  0
    3.9284    1.0323    0.0000 S   0  0  0  0  0  0  0  0  0  0  0  0
    4.6430    1.4449    0.0000 C   0  0  0  0  0  0  0  0  0  0  0  0
    4.6433    2.2702    0.0000 C   0  0  0  0  0  0  0  0  0  0  0  0
    5.3561    2.6809    0.0000 C   0  0  0  0  0  0  0  0  0  0  0  0
    6.0710    2.2681    0.0000 C   0  0  0  0  0  0  0  0  0  0  0  0
    6.0726    1.4470    0.0000 C   0  0  0  0  0  0  0  0  0  0  0  0
    5.3608    1.0306    0.0000 C   0  0  0  0  0  0  0  0  0  0  0  0
    0.3568    1.4470    0.0000 S   0  0  0  0  0  0  0  0  0  0  0  0
   -0.3577    1.0343    0.0000 O   0  0  0  0  0  0  0  0  0  0  0  0
    0.7702    2.1629    0.0000 O   0  0  0  0  0  0  0  0  0  0  0  0
   -0.0549    2.1629    0.0000 O   0  0  0  0  0  0  0  0  0  0  0  0
    3.5150    0.3164    0.0000 O   0  0  0  0  0  0  0  0  0  0  0  0
    4.3402    0.3164    0.0000 O   0  0  0  0  0  0  0  0  0  0  0  0
   -3.5150   -0.3163    0.0000 O   0  0  0  0  0  0  0  0  0  0  0  0
   -4.3402   -0.3163    0.0000 O   0  0  0  0  0  0  0  0  0  0  0  0
   -6.7856   -2.6807    0.0000 N   0  0  0  0  0  0  0  0  0  0  0  0
   -7.5003   -2.2681    0.0000 O   0  0  0  0  0  0  0  0  0  0  0  0
   -6.7856   -3.5059    0.0000 O   0  0  0  0  0  0  0  0  0  0  0  0
    6.7856    2.6807    0.0000 N   0  0  0  0  0  0  0  0  0  0  0  0
    7.5003    2.2681    0.0000 O   0  0  0  0  0  0  0  0  0  0  0  0
    6.7857    3.5059    0.0000 O   0  0  0  0  0  0  0  0  0  0  0  0
   -1.7304    1.4549    0.0000 Na  0  0  0  0  0 15  0  0  0  0  0  0
    1.4535   -1.5560    0.0000 Na  0  0  0  0  0 15  0  0  0  0  0  0
  2  1  2  0
  3  2  1  0
  4  3  2  0
  5  4  1  0
  6  5  2  0
  1  6  1  0
  6  7  1  0
  7  8  1  0
  8  9  1  0
 10  9  2  0
 11 10  1  0
 12 11  2  0
 13 12  1  0
 14 13  2  0
  9 14  1  0
  4 15  1  0
 15 16  1  0
 15 17  2  0
 15 18  2  0
  3 19  1  0
 19 20  2  0
 20 21  1  0
 22 21  2  0
 23 22  1  0
 24 23  2  0
 25 24  1  0
 26 25  2  0
 21 26  1  0
 24 27  1  0
 27 28  1  0
 28 29  1  0
 30 29  2  0
 31 30  1  0
 32 31  2  0
 33 32  1  0
 34 33  2  0
 29 34  1  0
 22 35  1  0
 35 36  1  0
 35 37  2  0
 35 38  2  0
 28 39  2  0
 28 40  2  0
  8 41  2  0
  8 42  2  0
 43 12  1  0
 43 44  1  0
 43 45  2  0
 46 32  1  0
 46 47  1  0
 46 48  2  0
M  CHG  8  16  -1  36  -1  43   1  44  -1  46   1  47  -1  49   1  50   1
M  END
> <From>
www.bindingDB.org

> <BindingDB Reactant_set_id>
51527529

> <Ligand InChI>
InChI=1S/C26H20N4O14S4.2Na/c31-29(32)21-7-11-23(12-8-21)45(35,36)27-19-5-3-17(25(15-19)47(39,40)41)1-2-18-4-6-20(16-26(18)48(42,43)44)28-46(37,38)24-13-9-22(10-14-24)30(33)34;;/h1-16,27-28H,(H,39,40,41)(H,42,43,44);;/q;2*+1/p-2/b2-1+;;

> <Ligand InChI Key>
DXCGGYVHIOMGCQ-SEPHDYHBSA-L

> <BindingDB MonomerID>
50614594

> <BindingDB Ligand Name>
CHEMBL5283187

> <Target Name>
DNA repair protein RAD51 homolog 1

> <Target Source Organism According to Curator or DataSource>
Homo sapiens

> <Ki (nM)>


> <IC50 (nM)>
>50000

> <Kd (nM)>


> <EC50 (nM)>


> <kon (M-1-s-1)>


> <koff (s-1)>


> <pH>


> <Temp C>


> <Curation/DataSource>
ChEMBL

> <Article DOI>


> <BindingDB Entry DOI>
10.7270/Q20G3QDN

> <PMID>
36990245

> <PubChem AID>


> <Patent Number>


> <Authors>
Demeyer, A; Fonteneau, L; Liennard, M; Foyer, C; Weigel, P; Laurent, AD; Lebreton, J; Fleury, F; Mathé-Allainmat, M

> <Date of publication>
5/1/2023

> <Date in BindingDB>
4/22/2024

> <Institution>
Nantes Universite

> <Link to Ligand in BindingDB>
http://www.bindingdb.org/bind/chemsearch/marvin/MolStructure.jsp?monomerid=50614594

> <Link to Ligand-Target Pair in BindingDB>
http://www.bindingdb.org/rwd/jsp/dbsearch/PrimarySearch_ki.jsp?energyterm=kJ/mole&tag=pol&polymerid=4676&target=DNA+repair+protein+RAD51+homolog+1&column=ki&startPg=0&Increment=50&submit=Search

> <Link to Ligand-Target Pair in BindingDB>
http://www.bindingdb.org/rwd/jsp/dbsearch/PrimarySearch_ki.jsp?energyterm=kJ/mole&tag=r21&monomerid=50614594&enzyme=DNA+repair+protein+RAD51+homolog+1&column=ki&startPg=0&Increment=50&submit=Search

> <Ligand HET ID in PDB>


> <PDB ID(s) for Ligand-Target Complex>


> <PubChem CID of Ligand>
21065050

> <PubChem SID of Ligand>
494504342

> <ChEBI ID of Ligand>


> <ChEMBL ID of Ligand>


> <DrugBank ID of Ligand>


> <IUPHAR_GRAC ID of Ligand>


> <KEGG ID of Ligand>


> <ZINC ID of Ligand>


> <Number of Protein Chains in Target (bigger than 1 implies a multichain complex)>
1

> <BindingDB Target Chain Sequence>
MAMQMQLEANADTSVEEESFGPQPISRLEQCGINANDVKKLEEAGFHTVEAVAYAPKKELINIKGISEAKADKILAEAAKLVPMGFTTATEFHQRRSEIIQITTGSKELDKLLQGGIETGSITEMFGEFRTGKTQICHTLAVTCQLPIDRGGGEGKAMYIDTEGTFRPERLLAVAERYGLSGSDVLDNVAYARAFNTDHQTQLLYQASAMMVESRYALLIVDSATALYRTDYSGRGELSARQMHLARFLRMLLRLADEFGVAVVITNQVVAQVDGAAMFAADPKKPIGGNIIAHASTTRLYLRKGRGETRICKIYDSPCLPEAEAMFAINADGVGDAKD

> <PDB ID(s) of Target Chain>


> <UniProt (SwissProt) Recommended Name of Target Chain>
DNA repair protein RAD51 homolog 1

> <UniProt (SwissProt) Entry Name of Target Chain>
RAD51_HUMAN

> <UniProt (SwissProt) Primary ID of Target Chain>
Q06609

> <UniProt (SwissProt) Secondary ID(s) of Target Chain>
B0FXP0 B2R8T6 Q6FHX9 Q6ZNA8 Q9BV60

> <UniProt (SwissProt) Alternative ID(s) of Target Chain>


> <UniProt (TrEMBL) Submitted Name of Target Chain>


> <UniProt (TrEMBL) Entry Name of Target Chain>


> <UniProt (TrEMBL) Primary ID of Target Chain>


> <UniProt (TrEMBL) Secondary ID(s) of Target Chain>


> <UniProt (TrEMBL) Alternative ID(s) of Target Chain>


$$$$

     RDKit          2D

 40 39  0  0  0  0  0  0  0  0999 V2000
   -2.4991   -0.2038    0.0000 C   0  0  0  0  0  0  0  0  0  0  0  0
   -1.7845    0.2084    0.0000 C   0  0  0  0  0  0  0  0  0  0  0  0
   -1.0727   -0.2034    0.0000 C   0  0  0  0  0  0  0  0  0  0  0  0
   -1.0727   -1.0286    0.0000 C   0  0  0  0  0  0  0  0  0  0  0  0
   -1.7827   -1.4404    0.0000 C   0  0  0  0  0  0  0  0  0  0  0  0
   -2.4991   -1.0323    0.0000 C   0  0  0  0  0  0  0  0  0  0  0  0
   -3.2138   -1.4449    0.0000 N   0  0  0  0  0  0  0  0  0  0  0  0
   -0.3580   -1.4412    0.0000 S   0  0  0  0  0  0  0  0  0  0  0  0
    0.3565   -1.0286    0.0000 O   0  0  0  0  0  0  0  0  0  0  0  0
   -0.7714   -2.1572    0.0000 O   0  0  0  0  0  0  0  0  0  0  0  0
    0.0537   -2.1572    0.0000 O   0  0  0  0  0  0  0  0  0  0  0  0
   -0.3580    0.2091    0.0000 C   0  0  0  0  0  0  0  0  0  0  0  0
    0.3565   -0.2034    0.0000 C   0  0  0  0  0  0  0  0  0  0  0  0
    1.0711    0.2091    0.0000 C   0  0  0  0  0  0  0  0  0  0  0  0
    1.0714    1.0343    0.0000 C   0  0  0  0  0  0  0  0  0  0  0  0
    1.7843    1.4450    0.0000 C   0  0  0  0  0  0  0  0  0  0  0  0
    2.4991    1.0323    0.0000 C   0  0  0  0  0  0  0  0  0  0  0  0
    2.5007    0.2112    0.0000 C   0  0  0  0  0  0  0  0  0  0  0  0
    1.7889   -0.2052    0.0000 C   0  0  0  0  0  0  0  0  0  0  0  0
    3.2137    1.4449    0.0000 N   0  0  0  0  0  0  0  0  0  0  0  0
    0.3568    1.4469    0.0000 S   0  0  0  0  0  0  0  0  0  0  0  0
   -0.3578    1.0343    0.0000 O   0  0  0  0  0  0  0  0  0  0  0  0
    0.7701    2.1629    0.0000 O   0  0  0  0  0  0  0  0  0  0  0  0
   -0.0550    2.1629    0.0000 O   0  0  0  0  0  0  0  0  0  0  0  0
   -3.9284   -1.0323    0.0000 C   0  0  0  0  0  0  0  0  0  0  0  0
   -4.6430   -1.4449    0.0000 O   0  0  0  0  0  0  0  0  0  0  0  0
   -3.9284   -0.2071    0.0000 O   0  0  0  0  0  0  0  0  0  0  0  0
   -5.3577   -1.0323    0.0000 C   0  0  0  0  0  0  0  0  0  0  0  0
   -6.0723   -1.4449    0.0000 C   0  0  0  0  0  0  0  0  0  0  0  0
    3.9284    1.0323    0.0000 C   0  0  0  0  0  0  0  0  0  0  0  0
    4.6430    1.4449    0.0000 O   0  0  0  0  0  0  0  0  0  0  0  0
    5.3576    1.0323    0.0000 C   0  0  0  0  0  0  0  0  0  0  0  0
    3.9284    0.2071    0.0000 O   0  0  0  0  0  0  0  0  0  0  0  0
   -6.7869   -1.0323    0.0000 C   0  0  0  0  0  0  0  0  0  0  0  0
   -6.0723   -2.2701    0.0000 C   0  0  0  0  0  0  0  0  0  0  0  0
    6.0723    1.4449    0.0000 C   0  0  0  0  0  0  0  0  0  0  0  0
    6.7869    1.0323    0.0000 C   0  0  0  0  0  0  0  0  0  0  0  0
    6.0723    2.2701    0.0000 C   0  0  0  0  0  0  0  0  0  0  0  0
   -1.4882    1.3859    0.0000 Na  0  0  0  0  0 15  0  0  0  0  0  0
    1.0727   -1.3481    0.0000 Na  0  0  0  0  0 15  0  0  0  0  0  0
  2  1  2  0
  3  2  1  0
  4  3  2  0
  5  4  1  0
  6  5  2  0
  1  6  1  0
  6  7  1  0
  4  8  1  0
  8  9  1  0
  8 10  2  0
  8 11  2  0
  3 12  1  0
 12 13  2  0
 13 14  1  0
 15 14  2  0
 16 15  1  0
 17 16  2  0
 18 17  1  0
 19 18  2  0
 14 19  1  0
 17 20  1  0
 15 21  1  0
 21 22  1  0
 21 23  2  0
 21 24  2  0
  7 25  1  0
 25 26  1  0
 25 27  2  0
 26 28  1  0
 28 29  1  0
 20 30  1  0
 30 31  1  0
 31 32  1  0
 30 33  2  0
 29 34  1  0
 29 35  1  0
 32 36  1  0
 36 37  1  0
 36 38  1  0
M  CHG  4   9  -1  22  -1  39   1  40   1
M  END
> <From>
www.bindingDB.org

> <BindingDB Reactant_set_id>
51527530

> <Ligand InChI>
InChI=1S/C24H30N2O10S2.2Na/c1-15(2)13-35-23(27)25-19-9-7-17(21(11-19)37(29,30)31)5-6-18-8-10-20(12-22(18)38(32,33)34)26-24(28)36-14-16(3)4;;/h5-12,15-16H,13-14H2,1-4H3,(H,25,27)(H,26,28)(H,29,30,31)(H,32,33,34);;/q;2*+1/p-2/b6-5+;;

> <Ligand InChI Key>
UEKBYQNZTYTJOM-TXOOBNKBSA-L

> <BindingDB MonomerID>
50614595

> <BindingDB Ligand Name>
CHEMBL5279331

> <Target Name>
DNA repair protein RAD51 homolog 1

> <Target Source Organism According to Curator or DataSource>
Homo sapiens

> <Ki (nM)>


> <IC50 (nM)>
>50000

> <Kd (nM)>


> <EC50 (nM)>


> <kon (M-1-s-1)>


> <koff (s-1)>


> <pH>


> <Temp C>


> <Curation/DataSource>
ChEMBL

> <Article DOI>


> <BindingDB Entry DOI>
10.7270/Q20G3QDN

> <PMID>
36990245

> <PubChem AID>


> <Patent Number>


> <Authors>
Demeyer, A; Fonteneau, L; Liennard, M; Foyer, C; Weigel, P; Laurent, AD; Lebreton, J; Fleury, F; Mathé-Allainmat, M

> <Date of publication>
5/1/2023

> <Date in BindingDB>
4/22/2024

> <Institution>
Nantes Universite

> <Link to Ligand in BindingDB>
http://www.bindingdb.org/bind/chemsearch/marvin/MolStructure.jsp?monomerid=50614595

> <Link to Ligand-Target Pair in BindingDB>
http://www.bindingdb.org/rwd/jsp/dbsearch/PrimarySearch_ki.jsp?energyterm=kJ/mole&tag=pol&polymerid=4676&target=DNA+repair+protein+RAD51+homolog+1&column=ki&startPg=0&Increment=50&submit=Search

> <Link to Ligand-Target Pair in BindingDB>
http://www.bindingdb.org/rwd/jsp/dbsearch/PrimarySearch_ki.jsp?energyterm=kJ/mole&tag=r21&monomerid=50614595&enzyme=DNA+repair+protein+RAD51+homolog+1&column=ki&startPg=0&Increment=50&submit=Search

> <Ligand HET ID in PDB>


> <PDB ID(s) for Ligand-Target Complex>


> <PubChem CID of Ligand>
172676072

> <PubChem SID of Ligand>
494504343

> <ChEBI ID of Ligand>


> <ChEMBL ID of Ligand>


> <DrugBank ID of Ligand>


> <IUPHAR_GRAC ID of Ligand>


> <KEGG ID of Ligand>


> <ZINC ID of Ligand>


> <Number of Protein Chains in Target (bigger than 1 implies a multichain complex)>
1

> <BindingDB Target Chain Sequence>
MAMQMQLEANADTSVEEESFGPQPISRLEQCGINANDVKKLEEAGFHTVEAVAYAPKKELINIKGISEAKADKILAEAAKLVPMGFTTATEFHQRRSEIIQITTGSKELDKLLQGGIETGSITEMFGEFRTGKTQICHTLAVTCQLPIDRGGGEGKAMYIDTEGTFRPERLLAVAERYGLSGSDVLDNVAYARAFNTDHQTQLLYQASAMMVESRYALLIVDSATALYRTDYSGRGELSARQMHLARFLRMLLRLADEFGVAVVITNQVVAQVDGAAMFAADPKKPIGGNIIAHASTTRLYLRKGRGETRICKIYDSPCLPEAEAMFAINADGVGDAKD

> <PDB ID(s) of Target Chain>


> <UniProt (SwissProt) Recommended Name of Target Chain>
DNA repair protein RAD51 homolog 1

> <UniProt (SwissProt) Entry Name of Target Chain>
RAD51_HUMAN

> <UniProt (SwissProt) Primary ID of Target Chain>
Q06609

> <UniProt (SwissProt) Secondary ID(s) of Target Chain>
B0FXP0 B2R8T6 Q6FHX9 Q6ZNA8 Q9BV60

> <UniProt (SwissProt) Alternative ID(s) of Target Chain>


> <UniProt (TrEMBL) Submitted Name of Target Chain>


> <UniProt (TrEMBL) Entry Name of Target Chain>


> <UniProt (TrEMBL) Primary ID of Target Chain>


> <UniProt (TrEMBL) Secondary ID(s) of Target Chain>


> <UniProt (TrEMBL) Alternative ID(s) of Target Chain>


$$$$

     RDKit          2D

 44 45  0  0  0  0  0  0  0  0999 V2000
   -2.4991   -0.2067    0.0000 C   0  0  0  0  0  0  0  0  0  0  0  0
   -1.7845    0.2055    0.0000 C   0  0  0  0  0  0  0  0  0  0  0  0
   -1.0727   -0.2063    0.0000 C   0  0  0  0  0  0  0  0  0  0  0  0
   -1.0727   -1.0315    0.0000 C   0  0  0  0  0  0  0  0  0  0  0  0
   -1.7827   -1.4433    0.0000 C   0  0  0  0  0  0  0  0  0  0  0  0
   -2.4991   -1.0352    0.0000 C   0  0  0  0  0  0  0  0  0  0  0  0
   -3.2138   -1.4477    0.0000 N   0  0  0  0  0  0  0  0  0  0  0  0
   -0.3580   -1.4440    0.0000 S   0  0  0  0  0  0  0  0  0  0  0  0
    0.3565   -1.0315    0.0000 O   0  0  0  0  0  0  0  0  0  0  0  0
   -0.7714   -2.1600    0.0000 O   0  0  0  0  0  0  0  0  0  0  0  0
    0.0537   -2.1600    0.0000 O   0  0  0  0  0  0  0  0  0  0  0  0
   -0.3580    0.2062    0.0000 C   0  0  0  0  0  0  0  0  0  0  0  0
    0.3565   -0.2063    0.0000 C   0  0  0  0  0  0  0  0  0  0  0  0
    1.0711    0.2062    0.0000 C   0  0  0  0  0  0  0  0  0  0  0  0
    1.0714    1.0315    0.0000 C   0  0  0  0  0  0  0  0  0  0  0  0
    1.7843    1.4422    0.0000 C   0  0  0  0  0  0  0  0  0  0  0  0
    2.4991    1.0294    0.0000 C   0  0  0  0  0  0  0  0  0  0  0  0
    2.5007    0.2083    0.0000 C   0  0  0  0  0  0  0  0  0  0  0  0
    1.7889   -0.2081    0.0000 C   0  0  0  0  0  0  0  0  0  0  0  0
    3.2137    1.4420    0.0000 N   0  0  0  0  0  0  0  0  0  0  0  0
    0.3568    1.4440    0.0000 S   0  0  0  0  0  0  0  0  0  0  0  0
   -0.3578    1.0315    0.0000 O   0  0  0  0  0  0  0  0  0  0  0  0
    0.7701    2.1600    0.0000 O   0  0  0  0  0  0  0  0  0  0  0  0
   -0.0550    2.1600    0.0000 O   0  0  0  0  0  0  0  0  0  0  0  0
   -3.9284   -1.0352    0.0000 C   0  0  0  0  0  0  0  0  0  0  0  0
   -4.6430   -1.4477    0.0000 O   0  0  0  0  0  0  0  0  0  0  0  0
   -3.9284   -0.2100    0.0000 O   0  0  0  0  0  0  0  0  0  0  0  0
   -5.3577   -1.0352    0.0000 C   0  0  0  0  0  0  0  0  0  0  0  0
    3.9284    1.0294    0.0000 C   0  0  0  0  0  0  0  0  0  0  0  0
    4.6430    1.4420    0.0000 O   0  0  0  0  0  0  0  0  0  0  0  0
    5.3576    1.0294    0.0000 C   0  0  0  0  0  0  0  0  0  0  0  0
    3.9284    0.2042    0.0000 O   0  0  0  0  0  0  0  0  0  0  0  0
   -6.0725   -1.4476    0.0000 C   0  0  0  0  0  0  0  0  0  0  0  0
   -6.7846   -1.0356    0.0000 C   0  0  0  0  0  0  0  0  0  0  0  0
   -6.7846   -0.2101    0.0000 C   0  0  0  0  0  0  0  0  0  0  0  0
   -6.0743    0.2017    0.0000 C   0  0  0  0  0  0  0  0  0  0  0  0
   -5.3577   -0.2064    0.0000 C   0  0  0  0  0  0  0  0  0  0  0  0
    6.0725    1.4419    0.0000 C   0  0  0  0  0  0  0  0  0  0  0  0
    6.7846    1.0299    0.0000 C   0  0  0  0  0  0  0  0  0  0  0  0
    6.7846    0.2044    0.0000 C   0  0  0  0  0  0  0  0  0  0  0  0
    6.0742   -0.2074    0.0000 C   0  0  0  0  0  0  0  0  0  0  0  0
    5.3576    0.2007    0.0000 C   0  0  0  0  0  0  0  0  0  0  0  0
    0.9689   -1.3164    0.0000 Na  0  0  0  0  0 15  0  0  0  0  0  0
   -1.2805    1.2446    0.0000 Na  0  0  0  0  0 15  0  0  0  0  0  0
  2  1  2  0
  3  2  1  0
  4  3  2  0
  5  4  1  0
  6  5  2  0
  1  6  1  0
  6  7  1  0
  4  8  1  0
  8  9  1  0
  8 10  2  0
  8 11  2  0
  3 12  1  0
 12 13  2  0
 13 14  1  0
 15 14  2  0
 16 15  1  0
 17 16  2  0
 18 17  1  0
 19 18  2  0
 14 19  1  0
 17 20  1  0
 15 21  1  0
 21 22  1  0
 21 23  2  0
 21 24  2  0
  7 25  1  0
 25 26  1  0
 25 27  2  0
 26 28  1  0
 20 29  1  0
 29 30  1  0
 30 31  1  0
 29 32  2  0
 33 28  2  0
 34 33  1  0
 35 34  2  0
 36 35  1  0
 37 36  2  0
 28 37  1  0
 38 31  2  0
 39 38  1  0
 40 39  2  0
 41 40  1  0
 42 41  2  0
 31 42  1  0
M  CHG  4   9  -1  22  -1  43   1  44   1
M  END
> <From>
www.bindingDB.org

> <BindingDB Reactant_set_id>
51527531

> <Ligand InChI>
InChI=1S/C28H22N2O10S2.2Na/c31-27(39-23-7-3-1-4-8-23)29-21-15-13-19(25(17-21)41(33,34)35)11-12-20-14-16-22(18-26(20)42(36,37)38)30-28(32)40-24-9-5-2-6-10-24;;/h1-18H,(H,29,31)(H,30,32)(H,33,34,35)(H,36,37,38);;/q;2*+1/p-2/b12-11+;;

> <Ligand InChI Key>
VDEWJBLWKZNDQM-YHPRVSEPSA-L

> <BindingDB MonomerID>
50614586

> <BindingDB Ligand Name>
CHEMBL5287027

> <Target Name>
DNA repair protein RAD51 homolog 1

> <Target Source Organism According to Curator or DataSource>
Homo sapiens

> <Ki (nM)>


> <IC50 (nM)>
 2300

> <Kd (nM)>


> <EC50 (nM)>


> <kon (M-1-s-1)>


> <koff (s-1)>


> <pH>


> <Temp C>


> <Curation/DataSource>
ChEMBL

> <Article DOI>


> <BindingDB Entry DOI>
10.7270/Q20G3QDN

> <PMID>
36990245

> <PubChem AID>


> <Patent Number>


> <Authors>
Demeyer, A; Fonteneau, L; Liennard, M; Foyer, C; Weigel, P; Laurent, AD; Lebreton, J; Fleury, F; Mathé-Allainmat, M

> <Date of publication>
5/1/2023

> <Date in BindingDB>
4/22/2024

> <Institution>
Nantes Universite

> <Link to Ligand in BindingDB>
http://www.bindingdb.org/bind/chemsearch/marvin/MolStructure.jsp?monomerid=50614586

> <Link to Ligand-Target Pair in BindingDB>
http://www.bindingdb.org/rwd/jsp/dbsearch/PrimarySearch_ki.jsp?energyterm=kJ/mole&tag=pol&polymerid=4676&target=DNA+repair+protein+RAD51+homolog+1&column=ki&startPg=0&Increment=50&submit=Search

> <Link to Ligand-Target Pair in BindingDB>
http://www.bindingdb.org/rwd/jsp/dbsearch/PrimarySearch_ki.jsp?energyterm=kJ/mole&tag=r21&monomerid=50614586&enzyme=DNA+repair+protein+RAD51+homolog+1&column=ki&startPg=0&Increment=50&submit=Search

> <Ligand HET ID in PDB>


> <PDB ID(s) for Ligand-Target Complex>


> <PubChem CID of Ligand>
172676170

> <PubChem SID of Ligand>
494504334

> <ChEBI ID of Ligand>


> <ChEMBL ID of Ligand>


> <DrugBank ID of Ligand>


> <IUPHAR_GRAC ID of Ligand>


> <KEGG ID of Ligand>


> <ZINC ID of Ligand>


> <Number of Protein Chains in Target (bigger than 1 implies a multichain complex)>
1

> <BindingDB Target Chain Sequence>
MAMQMQLEANADTSVEEESFGPQPISRLEQCGINANDVKKLEEAGFHTVEAVAYAPKKELINIKGISEAKADKILAEAAKLVPMGFTTATEFHQRRSEIIQITTGSKELDKLLQGGIETGSITEMFGEFRTGKTQICHTLAVTCQLPIDRGGGEGKAMYIDTEGTFRPERLLAVAERYGLSGSDVLDNVAYARAFNTDHQTQLLYQASAMMVESRYALLIVDSATALYRTDYSGRGELSARQMHLARFLRMLLRLADEFGVAVVITNQVVAQVDGAAMFAADPKKPIGGNIIAHASTTRLYLRKGRGETRICKIYDSPCLPEAEAMFAINADGVGDAKD

> <PDB ID(s) of Target Chain>


> <UniProt (SwissProt) Recommended Name of Target Chain>
DNA repair protein RAD51 homolog 1

> <UniProt (SwissProt) Entry Name of Target Chain>
RAD51_HUMAN

> <UniProt (SwissProt) Primary ID of Target Chain>
Q06609

> <UniProt (SwissProt) Secondary ID(s) of Target Chain>
B0FXP0 B2R8T6 Q6FHX9 Q6ZNA8 Q9BV60

> <UniProt (SwissProt) Alternative ID(s) of Target Chain>


> <UniProt (TrEMBL) Submitted Name of Target Chain>


> <UniProt (TrEMBL) Entry Name of Target Chain>


> <UniProt (TrEMBL) Primary ID of Target Chain>


> <UniProt (TrEMBL) Secondary ID(s) of Target Chain>


> <UniProt (TrEMBL) Alternative ID(s) of Target Chain>


$$$$
 
     RDKit          2D

 44 47  0  0  0  0  0  0  0  0999 V2000
   -2.4991   -0.2067    0.0000 C   0  0  0  0  0  0  0  0  0  0  0  0
   -1.7845    0.2055    0.0000 C   0  0  0  0  0  0  0  0  0  0  0  0
   -1.0727   -0.2062    0.0000 C   0  0  0  0  0  0  0  0  0  0  0  0
   -1.0727   -1.0315    0.0000 C   0  0  0  0  0  0  0  0  0  0  0  0
   -1.7827   -1.4433    0.0000 C   0  0  0  0  0  0  0  0  0  0  0  0
   -2.4991   -1.0352    0.0000 C   0  0  0  0  0  0  0  0  0  0  0  0
   -3.2138   -1.4477    0.0000 N   0  0  0  0  0  0  0  0  0  0  0  0
   -0.3580   -1.4440    0.0000 S   0  0  0  0  0  0  0  0  0  0  0  0
    0.3565   -1.0315    0.0000 O   0  0  0  0  0  0  0  0  0  0  0  0
   -0.7714   -2.1600    0.0000 O   0  0  0  0  0  0  0  0  0  0  0  0
    0.0537   -2.1600    0.0000 O   0  0  0  0  0  0  0  0  0  0  0  0
   -0.3580    0.2062    0.0000 C   0  0  0  0  0  0  0  0  0  0  0  0
    0.3565   -0.2062    0.0000 C   0  0  0  0  0  0  0  0  0  0  0  0
    1.0711    0.2062    0.0000 C   0  0  0  0  0  0  0  0  0  0  0  0
    1.0714    1.0315    0.0000 C   0  0  0  0  0  0  0  0  0  0  0  0
    1.7843    1.4422    0.0000 C   0  0  0  0  0  0  0  0  0  0  0  0
    2.4991    1.0294    0.0000 C   0  0  0  0  0  0  0  0  0  0  0  0
    2.5007    0.2083    0.0000 C   0  0  0  0  0  0  0  0  0  0  0  0
    1.7889   -0.2081    0.0000 C   0  0  0  0  0  0  0  0  0  0  0  0
    3.2137    1.4420    0.0000 N   0  0  0  0  0  0  0  0  0  0  0  0
    0.3568    1.4440    0.0000 S   0  0  0  0  0  0  0  0  0  0  0  0
   -0.3578    1.0315    0.0000 O   0  0  0  0  0  0  0  0  0  0  0  0
    0.7701    2.1600    0.0000 O   0  0  0  0  0  0  0  0  0  0  0  0
   -0.0550    2.1600    0.0000 O   0  0  0  0  0  0  0  0  0  0  0  0
   -3.9284   -1.0352    0.0000 C   0  0  0  0  0  0  0  0  0  0  0  0
   -4.6430   -1.4477    0.0000 O   0  0  0  0  0  0  0  0  0  0  0  0
   -3.9284   -0.2099    0.0000 O   0  0  0  0  0  0  0  0  0  0  0  0
   -5.3577   -1.0352    0.0000 C   0  0  0  0  0  0  0  0  0  0  0  0
    3.9284    1.0294    0.0000 C   0  0  0  0  0  0  0  0  0  0  0  0
    4.6430    1.4420    0.0000 O   0  0  0  0  0  0  0  0  0  0  0  0
    5.3576    1.0294    0.0000 C   0  0  0  0  0  0  0  0  0  0  0  0
    3.9284    0.2043    0.0000 O   0  0  0  0  0  0  0  0  0  0  0  0
   -6.0725   -1.4476    0.0000 C   0  0  0  0  0  0  0  0  0  0  0  0
   -6.7846   -1.0356    0.0000 C   0  0  0  0  0  0  0  0  0  0  0  0
   -6.7846   -0.2101    0.0000 C   0  0  0  0  0  0  0  0  0  0  0  0
   -6.0743    0.2017    0.0000 C   0  0  0  0  0  0  0  0  0  0  0  0
   -5.3577   -0.2064    0.0000 C   0  0  0  0  0  0  0  0  0  0  0  0
    6.0725    1.4419    0.0000 C   0  0  0  0  0  0  0  0  0  0  0  0
    6.7846    1.0299    0.0000 C   0  0  0  0  0  0  0  0  0  0  0  0
    6.7846    0.2044    0.0000 C   0  0  0  0  0  0  0  0  0  0  0  0
    6.0742   -0.2074    0.0000 C   0  0  0  0  0  0  0  0  0  0  0  0
    5.3576    0.2007    0.0000 C   0  0  0  0  0  0  0  0  0  0  0  0
   -1.0724    1.4440    0.0000 C   0  0  0  0  0  0  0  0  0  0  0  0
    1.0711   -1.4440    0.0000 C   0  0  0  0  0  0  0  0  0  0  0  0
  2  1  2  0
  3  2  1  0
  4  3  2  0
  5  4  1  0
  6  5  2  0
  1  6  1  0
  6  7  1  0
  4  8  1  0
  8  9  1  0
  8 10  2  0
  8 11  2  0
  3 12  1  0
 12 13  2  0
 13 14  1  0
 15 14  2  0
 16 15  1  0
 17 16  2  0
 18 17  1  0
 19 18  2  0
 14 19  1  0
 17 20  1  0
 15 21  1  0
 21 22  1  0
 21 23  2  0
 21 24  2  0
  7 25  1  0
 25 26  1  0
 25 27  2  0
 26 28  1  0
 20 29  1  0
 29 30  1  0
 30 31  1  0
 29 32  2  0
 33 28  2  0
 34 33  1  0
 35 34  2  0
 36 35  1  0
 37 36  2  0
 28 37  1  0
 38 31  2  0
 39 38  1  0
 40 39  2  0
 41 40  1  0
 42 41  2  0
 31 42  1  0
 22 43  1  0
  9 44  1  0
M  END
> <From>
www.bindingDB.org

> <BindingDB Reactant_set_id>
51527532

> <Ligand InChI>
InChI=1S/C30H26N2O10S2/c1-39-43(35,36)27-19-23(31-29(33)41-25-9-5-3-6-10-25)17-15-21(27)13-14-22-16-18-24(20-28(22)44(37,38)40-2)32-30(34)42-26-11-7-4-8-12-26/h3-20H,1-2H3,(H,31,33)(H,32,34)/b14-13+

> <Ligand InChI Key>
APVFGQBHGWFIFM-BUHFOSPRSA-N

> <BindingDB MonomerID>
50614596

> <BindingDB Ligand Name>
CHEMBL5276360

> <Target Name>
DNA repair protein RAD51 homolog 1

> <Target Source Organism According to Curator or DataSource>
Homo sapiens

> <Ki (nM)>


> <IC50 (nM)>
>50000

> <Kd (nM)>


> <EC50 (nM)>


> <kon (M-1-s-1)>


> <koff (s-1)>


> <pH>


> <Temp C>


> <Curation/DataSource>
ChEMBL

> <Article DOI>


> <BindingDB Entry DOI>
10.7270/Q20G3QDN

> <PMID>
36990245

> <PubChem AID>


> <Patent Number>


> <Authors>
n/a

> <Date of publication>
5/1/2023

> <Date in BindingDB>
4/22/2024

> <Institution>
n/a

> <Link to Ligand in BindingDB>
http://www.bindingdb.org/bind/chemsearch/marvin/MolStructure.jsp?monomerid=50614596

> <Link to Ligand-Target Pair in BindingDB>
http://www.bindingdb.org/jsp/dbsearch/PrimarySearch_ki.jsp?energyterm=kJ/mole&tag=pol&polymerid=4676&target=DNA+repair+protein+RAD51+homolog+1&column=ki&startPg=0&Increment=50&submit=Search

> <Link to Ligand-Target Pair in BindingDB>
http://www.bindingdb.org/jsp/dbsearch/PrimarySearch_ki.jsp?energyterm=kJ/mole&tag=r21&monomerid=50614596&enzyme=DNA+repair+protein+RAD51+homolog+1&column=ki&startPg=0&Increment=50&submit=Search

> <Ligand HET ID in PDB>


> <PDB ID(s) for Ligand-Target Complex>


> <PubChem CID of Ligand>
171353983

> <PubChem SID of Ligand>
494504344

> <ChEBI ID of Ligand>


> <ChEMBL ID of Ligand>


> <DrugBank ID of Ligand>


> <IUPHAR_GRAC ID of Ligand>


> <KEGG ID of Ligand>


> <ZINC ID of Ligand>


> <Number of Protein Chains in Target (bigger than 1 implies a multichain complex)>
1

> <BindingDB Target Chain Sequence>
MAMQMQLEANADTSVEEESFGPQPISRLEQCGINANDVKKLEEAGFHTVEAVAYAPKKELINIKGISEAKADKILAEAAKLVPMGFTTATEFHQRRSEIIQITTGSKELDKLLQGGIETGSITEMFGEFRTGKTQICHTLAVTCQLPIDRGGGEGKAMYIDTEGTFRPERLLAVAERYGLSGSDVLDNVAYARAFNTDHQTQLLYQASAMMVESRYALLIVDSATALYRTDYSGRGELSARQMHLARFLRMLLRLADEFGVAVVITNQVVAQVDGAAMFAADPKKPIGGNIIAHASTTRLYLRKGRGETRICKIYDSPCLPEAEAMFAINADGVGDAKD

> <PDB ID(s) of Target Chain>
1N0W,5JZC,5NP7,5NWL,8BQ2,8BR2,8BSC,8GYK,8PBC,8PBD

> <UniProt (SwissProt) Recommended Name of Target Chain>
DNA repair protein RAD51 homolog 1

> <UniProt (SwissProt) Entry Name of Target Chain>
RAD51_HUMAN

> <UniProt (SwissProt) Primary ID of Target Chain>
Q06609

> <UniProt (SwissProt) Secondary ID(s) of Target Chain>
B0FXP0 B2R8T6 Q6FHX9 Q6ZNA8 Q9BV60

> <UniProt (SwissProt) Alternative ID(s) of Target Chain>


> <UniProt (TrEMBL) Submitted Name of Target Chain>


> <UniProt (TrEMBL) Entry Name of Target Chain>


> <UniProt (TrEMBL) Primary ID of Target Chain>


> <UniProt (TrEMBL) Secondary ID(s) of Target Chain>


> <UniProt (TrEMBL) Alternative ID(s) of Target Chain>


$$$$

     RDKit          2D

 44 45  0  0  0  0  0  0  0  0999 V2000
    1.1074   -1.3513    0.0000 Na  0  0  0  0  0 15  0  0  0  0  0  0
   -1.4882    1.5558    0.0000 Na  0  0  0  0  0 15  0  0  0  0  0  0
   -2.4991   -0.2067    0.0000 C   0  0  0  0  0  0  0  0  0  0  0  0
   -1.7845    0.2055    0.0000 C   0  0  0  0  0  0  0  0  0  0  0  0
   -1.0727   -0.2063    0.0000 C   0  0  0  0  0  0  0  0  0  0  0  0
   -1.0727   -1.0315    0.0000 C   0  0  0  0  0  0  0  0  0  0  0  0
   -1.7827   -1.4433    0.0000 C   0  0  0  0  0  0  0  0  0  0  0  0
   -2.4991   -1.0352    0.0000 C   0  0  0  0  0  0  0  0  0  0  0  0
   -3.2138   -1.4478    0.0000 N   0  0  0  0  0  0  0  0  0  0  0  0
   -0.3580   -1.4441    0.0000 S   0  0  0  0  0  0  0  0  0  0  0  0
    0.3565   -1.0315    0.0000 O   0  0  0  0  0  0  0  0  0  0  0  0
   -0.7714   -2.1600    0.0000 O   0  0  0  0  0  0  0  0  0  0  0  0
    0.0537   -2.1600    0.0000 O   0  0  0  0  0  0  0  0  0  0  0  0
   -0.3580    0.2062    0.0000 C   0  0  0  0  0  0  0  0  0  0  0  0
    0.3565   -0.2063    0.0000 C   0  0  0  0  0  0  0  0  0  0  0  0
    1.0712    0.2062    0.0000 C   0  0  0  0  0  0  0  0  0  0  0  0
    1.0714    1.0315    0.0000 C   0  0  0  0  0  0  0  0  0  0  0  0
    1.7843    1.4422    0.0000 C   0  0  0  0  0  0  0  0  0  0  0  0
    2.4991    1.0294    0.0000 C   0  0  0  0  0  0  0  0  0  0  0  0
    2.5007    0.2083    0.0000 C   0  0  0  0  0  0  0  0  0  0  0  0
    1.7889   -0.2081    0.0000 C   0  0  0  0  0  0  0  0  0  0  0  0
    3.2138    1.4420    0.0000 N   0  0  0  0  0  0  0  0  0  0  0  0
    0.3568    1.4440    0.0000 S   0  0  0  0  0  0  0  0  0  0  0  0
   -0.3577    1.0315    0.0000 O   0  0  0  0  0  0  0  0  0  0  0  0
    0.7702    2.1600    0.0000 O   0  0  0  0  0  0  0  0  0  0  0  0
   -0.0549    2.1600    0.0000 O   0  0  0  0  0  0  0  0  0  0  0  0
   -3.9284   -1.0352    0.0000 C   0  0  0  0  0  0  0  0  0  0  0  0
   -4.6430   -1.4478    0.0000 O   0  0  0  0  0  0  0  0  0  0  0  0
   -3.9284   -0.2100    0.0000 O   0  0  0  0  0  0  0  0  0  0  0  0
   -5.3577   -1.0352    0.0000 C   0  0  0  0  0  0  0  0  0  0  0  0
    3.9284    1.0294    0.0000 C   0  0  0  0  0  0  0  0  0  0  0  0
    4.6430    1.4420    0.0000 O   0  0  0  0  0  0  0  0  0  0  0  0
    5.3577    1.0294    0.0000 C   0  0  0  0  0  0  0  0  0  0  0  0
    3.9284    0.2042    0.0000 O   0  0  0  0  0  0  0  0  0  0  0  0
   -6.0725   -1.4476    0.0000 C   0  0  0  0  0  0  0  0  0  0  0  0
   -6.7846   -1.0356    0.0000 C   0  0  0  0  0  0  0  0  0  0  0  0
   -6.7846   -0.2101    0.0000 C   0  0  0  0  0  0  0  0  0  0  0  0
   -6.0742    0.2016    0.0000 C   0  0  0  0  0  0  0  0  0  0  0  0
   -5.3577   -0.2064    0.0000 C   0  0  0  0  0  0  0  0  0  0  0  0
    6.0725    1.4418    0.0000 C   0  0  0  0  0  0  0  0  0  0  0  0
    6.7846    1.0298    0.0000 C   0  0  0  0  0  0  0  0  0  0  0  0
    6.7846    0.2044    0.0000 C   0  0  0  0  0  0  0  0  0  0  0  0
    6.0743   -0.2074    0.0000 C   0  0  0  0  0  0  0  0  0  0  0  0
    5.3577    0.2007    0.0000 C   0  0  0  0  0  0  0  0  0  0  0  0
  4  3  2  0
  5  4  1  0
  6  5  2  0
  7  6  1  0
  8  7  2  0
  3  8  1  0
  8  9  1  0
  6 10  1  0
 10 11  1  0
 10 12  2  0
 10 13  2  0
  5 14  1  0
 14 15  1  0
 15 16  1  0
 17 16  2  0
 18 17  1  0
 19 18  2  0
 20 19  1  0
 21 20  2  0
 16 21  1  0
 19 22  1  0
 17 23  1  0
 23 24  1  0
 23 25  2  0
 23 26  2  0
  9 27  1  0
 27 28  1  0
 27 29  2  0
 28 30  1  0
 22 31  1  0
 31 32  1  0
 32 33  1  0
 31 34  2  0
 35 30  2  0
 36 35  1  0
 37 36  2  0
 38 37  1  0
 39 38  2  0
 30 39  1  0
 40 33  2  0
 41 40  1  0
 42 41  2  0
 43 42  1  0
 44 43  2  0
 33 44  1  0
M  CHG  4   1   1   2   1  11  -1  24  -1
M  END
> <From>
www.bindingDB.org

> <BindingDB Reactant_set_id>
51527533

> <Ligand InChI>
InChI=1S/C28H24N2O10S2.2Na/c31-27(39-23-7-3-1-4-8-23)29-21-15-13-19(25(17-21)41(33,34)35)11-12-20-14-16-22(18-26(20)42(36,37)38)30-28(32)40-24-9-5-2-6-10-24;;/h1-10,13-18H,11-12H2,(H,29,31)(H,30,32)(H,33,34,35)(H,36,37,38);;/q;2*+1/p-2

> <Ligand InChI Key>
XOAKHFRFQHYJHK-UHFFFAOYSA-L

> <BindingDB MonomerID>
50614597

> <BindingDB Ligand Name>
CHEMBL5274741

> <Target Name>
DNA repair protein RAD51 homolog 1

> <Target Source Organism According to Curator or DataSource>
Homo sapiens

> <Ki (nM)>


> <IC50 (nM)>
 30000

> <Kd (nM)>


> <EC50 (nM)>


> <kon (M-1-s-1)>


> <koff (s-1)>


> <pH>


> <Temp C>


> <Curation/DataSource>
ChEMBL

> <Article DOI>


> <BindingDB Entry DOI>
10.7270/Q20G3QDN

> <PMID>
36990245

> <PubChem AID>


> <Patent Number>


> <Authors>
Demeyer, A; Fonteneau, L; Liennard, M; Foyer, C; Weigel, P; Laurent, AD; Lebreton, J; Fleury, F; Mathé-Allainmat, M

> <Date of publication>
5/1/2023

> <Date in BindingDB>
4/22/2024

> <Institution>
Nantes Universite

> <Link to Ligand in BindingDB>
http://www.bindingdb.org/bind/chemsearch/marvin/MolStructure.jsp?monomerid=50614597

> <Link to Ligand-Target Pair in BindingDB>
http://www.bindingdb.org/rwd/jsp/dbsearch/PrimarySearch_ki.jsp?energyterm=kJ/mole&tag=pol&polymerid=4676&target=DNA+repair+protein+RAD51+homolog+1&column=ki&startPg=0&Increment=50&submit=Search

> <Link to Ligand-Target Pair in BindingDB>
http://www.bindingdb.org/rwd/jsp/dbsearch/PrimarySearch_ki.jsp?energyterm=kJ/mole&tag=r21&monomerid=50614597&enzyme=DNA+repair+protein+RAD51+homolog+1&column=ki&startPg=0&Increment=50&submit=Search

> <Ligand HET ID in PDB>


> <PDB ID(s) for Ligand-Target Complex>


> <PubChem CID of Ligand>
172676073

> <PubChem SID of Ligand>
494504345

> <ChEBI ID of Ligand>


> <ChEMBL ID of Ligand>


> <DrugBank ID of Ligand>


> <IUPHAR_GRAC ID of Ligand>


> <KEGG ID of Ligand>


> <ZINC ID of Ligand>


> <Number of Protein Chains in Target (bigger than 1 implies a multichain complex)>
1

> <BindingDB Target Chain Sequence>
MAMQMQLEANADTSVEEESFGPQPISRLEQCGINANDVKKLEEAGFHTVEAVAYAPKKELINIKGISEAKADKILAEAAKLVPMGFTTATEFHQRRSEIIQITTGSKELDKLLQGGIETGSITEMFGEFRTGKTQICHTLAVTCQLPIDRGGGEGKAMYIDTEGTFRPERLLAVAERYGLSGSDVLDNVAYARAFNTDHQTQLLYQASAMMVESRYALLIVDSATALYRTDYSGRGELSARQMHLARFLRMLLRLADEFGVAVVITNQVVAQVDGAAMFAADPKKPIGGNIIAHASTTRLYLRKGRGETRICKIYDSPCLPEAEAMFAINADGVGDAKD

> <PDB ID(s) of Target Chain>


> <UniProt (SwissProt) Recommended Name of Target Chain>
DNA repair protein RAD51 homolog 1

> <UniProt (SwissProt) Entry Name of Target Chain>
RAD51_HUMAN

> <UniProt (SwissProt) Primary ID of Target Chain>
Q06609

> <UniProt (SwissProt) Secondary ID(s) of Target Chain>
B0FXP0 B2R8T6 Q6FHX9 Q6ZNA8 Q9BV60

> <UniProt (SwissProt) Alternative ID(s) of Target Chain>


> <UniProt (TrEMBL) Submitted Name of Target Chain>


> <UniProt (TrEMBL) Entry Name of Target Chain>


> <UniProt (TrEMBL) Primary ID of Target Chain>


> <UniProt (TrEMBL) Secondary ID(s) of Target Chain>


> <UniProt (TrEMBL) Alternative ID(s) of Target Chain>


$$$$
 
     RDKit          2D

 34 37  0  0  0  0  0  0  0  0999 V2000
   -2.4992   -0.2038    0.0000 C   0  0  0  0  0  0  0  0  0  0  0  0
   -1.7846    0.2083    0.0000 C   0  0  0  0  0  0  0  0  0  0  0  0
   -1.0727   -0.2035    0.0000 C   0  0  0  0  0  0  0  0  0  0  0  0
   -1.0727   -1.0287    0.0000 C   0  0  0  0  0  0  0  0  0  0  0  0
   -1.7828   -1.4405    0.0000 C   0  0  0  0  0  0  0  0  0  0  0  0
   -2.4992   -1.0324    0.0000 C   0  0  0  0  0  0  0  0  0  0  0  0
   -3.2139   -1.4450    0.0000 N   0  0  0  0  0  0  0  0  0  0  0  0
   -0.3580    0.2090    0.0000 C   0  0  0  0  0  0  0  0  0  0  0  0
    0.3566   -0.2035    0.0000 C   0  0  0  0  0  0  0  0  0  0  0  0
    1.0712    0.2090    0.0000 C   0  0  0  0  0  0  0  0  0  0  0  0
    1.0715    1.0343    0.0000 C   0  0  0  0  0  0  0  0  0  0  0  0
    1.7843    1.4450    0.0000 C   0  0  0  0  0  0  0  0  0  0  0  0
    2.4992    1.0323    0.0000 C   0  0  0  0  0  0  0  0  0  0  0  0
    2.5008    0.2112    0.0000 C   0  0  0  0  0  0  0  0  0  0  0  0
    1.7889   -0.2052    0.0000 C   0  0  0  0  0  0  0  0  0  0  0  0
    3.2139    1.4449    0.0000 N   0  0  0  0  0  0  0  0  0  0  0  0
   -3.9285   -1.0324    0.0000 C   0  0  0  0  0  0  0  0  0  0  0  0
   -4.6432   -1.4450    0.0000 O   0  0  0  0  0  0  0  0  0  0  0  0
   -3.9285   -0.2072    0.0000 O   0  0  0  0  0  0  0  0  0  0  0  0
   -5.3579   -1.0324    0.0000 C   0  0  0  0  0  0  0  0  0  0  0  0
    3.9285    1.0323    0.0000 C   0  0  0  0  0  0  0  0  0  0  0  0
    4.6432    1.4449    0.0000 O   0  0  0  0  0  0  0  0  0  0  0  0
    5.3579    1.0323    0.0000 C   0  0  0  0  0  0  0  0  0  0  0  0
    3.9285    0.2071    0.0000 O   0  0  0  0  0  0  0  0  0  0  0  0
   -6.0727   -1.4448    0.0000 C   0  0  0  0  0  0  0  0  0  0  0  0
   -6.7848   -1.0328    0.0000 C   0  0  0  0  0  0  0  0  0  0  0  0
   -6.7848   -0.2073    0.0000 C   0  0  0  0  0  0  0  0  0  0  0  0
   -6.0745    0.2045    0.0000 C   0  0  0  0  0  0  0  0  0  0  0  0
   -5.3579   -0.2036    0.0000 C   0  0  0  0  0  0  0  0  0  0  0  0
    6.0727    1.4447    0.0000 C   0  0  0  0  0  0  0  0  0  0  0  0
    6.7848    1.0327    0.0000 C   0  0  0  0  0  0  0  0  0  0  0  0
    6.7848    0.2073    0.0000 C   0  0  0  0  0  0  0  0  0  0  0  0
    6.0746   -0.2046    0.0000 C   0  0  0  0  0  0  0  0  0  0  0  0
    5.3579    0.2036    0.0000 C   0  0  0  0  0  0  0  0  0  0  0  0
  2  1  2  0
  3  2  1  0
  4  3  2  0
  5  4  1  0
  6  5  2  0
  1  6  1  0
  6  7  1  0
  3  8  1  0
  8  9  2  0
  9 10  1  0
 11 10  2  0
 12 11  1  0
 13 12  2  0
 14 13  1  0
 15 14  2  0
 10 15  1  0
 13 16  1  0
  7 17  1  0
 17 18  1  0
 17 19  2  0
 18 20  1  0
 16 21  1  0
 21 22  1  0
 22 23  1  0
 21 24  2  0
 25 20  2  0
 26 25  1  0
 27 26  2  0
 28 27  1  0
 29 28  2  0
 20 29  1  0
 30 23  2  0
 31 30  1  0
 32 31  2  0
 33 32  1  0
 34 33  2  0
 23 34  1  0
M  END
> <From>
www.bindingDB.org

> <BindingDB Reactant_set_id>
51527534

> <Ligand InChI>
InChI=1S/C28H22N2O4/c31-27(33-25-7-3-1-4-8-25)29-23-17-13-21(14-18-23)11-12-22-15-19-24(20-16-22)30-28(32)34-26-9-5-2-6-10-26/h1-20H,(H,29,31)(H,30,32)/b12-11+

> <Ligand InChI Key>
PYSMYYXLWJZEMP-VAWYXSNFSA-N

> <BindingDB MonomerID>
50614598

> <BindingDB Ligand Name>
CHEMBL5286345

> <Target Name>
DNA repair protein RAD51 homolog 1

> <Target Source Organism According to Curator or DataSource>
Homo sapiens

> <Ki (nM)>


> <IC50 (nM)>
 30500

> <Kd (nM)>


> <EC50 (nM)>


> <kon (M-1-s-1)>


> <koff (s-1)>


> <pH>


> <Temp C>


> <Curation/DataSource>
ChEMBL

> <Article DOI>


> <BindingDB Entry DOI>
10.7270/Q20G3QDN

> <PMID>
36990245

> <PubChem AID>


> <Patent Number>


> <Authors>
n/a

> <Date of publication>
5/1/2023

> <Date in BindingDB>
4/22/2024

> <Institution>
n/a

> <Link to Ligand in BindingDB>
http://www.bindingdb.org/bind/chemsearch/marvin/MolStructure.jsp?monomerid=50614598

> <Link to Ligand-Target Pair in BindingDB>
http://www.bindingdb.org/jsp/dbsearch/PrimarySearch_ki.jsp?energyterm=kJ/mole&tag=pol&polymerid=4676&target=DNA+repair+protein+RAD51+homolog+1&column=ki&startPg=0&Increment=50&submit=Search

> <Link to Ligand-Target Pair in BindingDB>
http://www.bindingdb.org/jsp/dbsearch/PrimarySearch_ki.jsp?energyterm=kJ/mole&tag=r21&monomerid=50614598&enzyme=DNA+repair+protein+RAD51+homolog+1&column=ki&startPg=0&Increment=50&submit=Search

> <Ligand HET ID in PDB>


> <PDB ID(s) for Ligand-Target Complex>


> <PubChem CID of Ligand>
153592269

> <PubChem SID of Ligand>
494504346

> <ChEBI ID of Ligand>


> <ChEMBL ID of Ligand>


> <DrugBank ID of Ligand>


> <IUPHAR_GRAC ID of Ligand>


> <KEGG ID of Ligand>


> <ZINC ID of Ligand>


> <Number of Protein Chains in Target (bigger than 1 implies a multichain complex)>
1

> <BindingDB Target Chain Sequence>
MAMQMQLEANADTSVEEESFGPQPISRLEQCGINANDVKKLEEAGFHTVEAVAYAPKKELINIKGISEAKADKILAEAAKLVPMGFTTATEFHQRRSEIIQITTGSKELDKLLQGGIETGSITEMFGEFRTGKTQICHTLAVTCQLPIDRGGGEGKAMYIDTEGTFRPERLLAVAERYGLSGSDVLDNVAYARAFNTDHQTQLLYQASAMMVESRYALLIVDSATALYRTDYSGRGELSARQMHLARFLRMLLRLADEFGVAVVITNQVVAQVDGAAMFAADPKKPIGGNIIAHASTTRLYLRKGRGETRICKIYDSPCLPEAEAMFAINADGVGDAKD

> <PDB ID(s) of Target Chain>
1N0W,5JZC,5NP7,5NWL,8BQ2,8BR2,8BSC,8GYK,8PBC,8PBD

> <UniProt (SwissProt) Recommended Name of Target Chain>
DNA repair protein RAD51 homolog 1

> <UniProt (SwissProt) Entry Name of Target Chain>
RAD51_HUMAN

> <UniProt (SwissProt) Primary ID of Target Chain>
Q06609

> <UniProt (SwissProt) Secondary ID(s) of Target Chain>
B0FXP0 B2R8T6 Q6FHX9 Q6ZNA8 Q9BV60

> <UniProt (SwissProt) Alternative ID(s) of Target Chain>


> <UniProt (TrEMBL) Submitted Name of Target Chain>


> <UniProt (TrEMBL) Entry Name of Target Chain>


> <UniProt (TrEMBL) Primary ID of Target Chain>


> <UniProt (TrEMBL) Secondary ID(s) of Target Chain>


> <UniProt (TrEMBL) Alternative ID(s) of Target Chain>


$$$$
 
     RDKit          2D

 34 37  0  0  0  0  0  0  0  0999 V2000
   -2.4991   -0.2038    0.0000 C   0  0  0  0  0  0  0  0  0  0  0  0
   -1.7845    0.2084    0.0000 C   0  0  0  0  0  0  0  0  0  0  0  0
   -1.0726   -0.2034    0.0000 C   0  0  0  0  0  0  0  0  0  0  0  0
   -1.0726   -1.0286    0.0000 C   0  0  0  0  0  0  0  0  0  0  0  0
   -1.7828   -1.4404    0.0000 C   0  0  0  0  0  0  0  0  0  0  0  0
   -2.4991   -1.0323    0.0000 C   0  0  0  0  0  0  0  0  0  0  0  0
   -3.2137   -1.4449    0.0000 N   0  0  0  0  0  0  0  0  0  0  0  0
   -0.3580    0.2091    0.0000 C   0  0  0  0  0  0  0  0  0  0  0  0
    0.3565   -0.2034    0.0000 C   0  0  0  0  0  0  0  0  0  0  0  0
    1.0712    0.2091    0.0000 C   0  0  0  0  0  0  0  0  0  0  0  0
    1.0714    1.0343    0.0000 C   0  0  0  0  0  0  0  0  0  0  0  0
    1.7843    1.4450    0.0000 C   0  0  0  0  0  0  0  0  0  0  0  0
    2.4992    1.0323    0.0000 C   0  0  0  0  0  0  0  0  0  0  0  0
    2.5007    0.2112    0.0000 C   0  0  0  0  0  0  0  0  0  0  0  0
    1.7889   -0.2052    0.0000 C   0  0  0  0  0  0  0  0  0  0  0  0
    3.2137    1.4449    0.0000 N   0  0  0  0  0  0  0  0  0  0  0  0
   -3.9284   -1.0323    0.0000 S   0  0  0  0  0  0  0  0  0  0  0  0
   -4.6430   -1.4449    0.0000 C   0  0  0  0  0  0  0  0  0  0  0  0
    3.9284    1.0323    0.0000 S   0  0  0  0  0  0  0  0  0  0  0  0
    4.6431    1.4449    0.0000 C   0  0  0  0  0  0  0  0  0  0  0  0
    3.5151    0.3163    0.0000 O   0  0  0  0  0  0  0  0  0  0  0  0
    4.3402    0.3163    0.0000 O   0  0  0  0  0  0  0  0  0  0  0  0
   -3.5151   -0.3163    0.0000 O   0  0  0  0  0  0  0  0  0  0  0  0
   -4.3402   -0.3163    0.0000 O   0  0  0  0  0  0  0  0  0  0  0  0
   -4.6433   -2.2701    0.0000 C   0  0  0  0  0  0  0  0  0  0  0  0
   -5.3561   -2.6808    0.0000 C   0  0  0  0  0  0  0  0  0  0  0  0
   -6.0710   -2.2681    0.0000 C   0  0  0  0  0  0  0  0  0  0  0  0
   -6.0726   -1.4470    0.0000 C   0  0  0  0  0  0  0  0  0  0  0  0
   -5.3607   -1.0305    0.0000 C   0  0  0  0  0  0  0  0  0  0  0  0
    4.6433    2.2701    0.0000 C   0  0  0  0  0  0  0  0  0  0  0  0
    5.3561    2.6808    0.0000 C   0  0  0  0  0  0  0  0  0  0  0  0
    6.0710    2.2681    0.0000 C   0  0  0  0  0  0  0  0  0  0  0  0
    6.0726    1.4470    0.0000 C   0  0  0  0  0  0  0  0  0  0  0  0
    5.3607    1.0305    0.0000 C   0  0  0  0  0  0  0  0  0  0  0  0
  2  1  2  0
  3  2  1  0
  4  3  2  0
  5  4  1  0
  6  5  2  0
  1  6  1  0
  6  7  1  0
  3  8  1  0
  8  9  2  0
  9 10  1  0
 11 10  2  0
 12 11  1  0
 13 12  2  0
 14 13  1  0
 15 14  2  0
 10 15  1  0
 13 16  1  0
  7 17  1  0
 17 18  1  0
 16 19  1  0
 19 20  1  0
 19 21  2  0
 19 22  2  0
 17 23  2  0
 17 24  2  0
 25 18  2  0
 26 25  1  0
 27 26  2  0
 28 27  1  0
 29 28  2  0
 18 29  1  0
 30 20  2  0
 31 30  1  0
 32 31  2  0
 33 32  1  0
 34 33  2  0
 20 34  1  0
M  END
> <From>
www.bindingDB.org

> <BindingDB Reactant_set_id>
51527535

> <Ligand InChI>
InChI=1S/C26H22N2O4S2/c29-33(30,25-7-3-1-4-8-25)27-23-17-13-21(14-18-23)11-12-22-15-19-24(20-16-22)28-34(31,32)26-9-5-2-6-10-26/h1-20,27-28H/b12-11+

> <Ligand InChI Key>
HQOFBYWKVVCCMS-VAWYXSNFSA-N

> <BindingDB MonomerID>
50614599

> <BindingDB Ligand Name>
CHEMBL5278397

> <Target Name>
DNA repair protein RAD51 homolog 1

> <Target Source Organism According to Curator or DataSource>
Homo sapiens

> <Ki (nM)>


> <IC50 (nM)>
>50000

> <Kd (nM)>


> <EC50 (nM)>


> <kon (M-1-s-1)>


> <koff (s-1)>


> <pH>


> <Temp C>


> <Curation/DataSource>
ChEMBL

> <Article DOI>


> <BindingDB Entry DOI>
10.7270/Q20G3QDN

> <PMID>
36990245

> <PubChem AID>


> <Patent Number>


> <Authors>
n/a

> <Date of publication>
5/1/2023

> <Date in BindingDB>
4/22/2024

> <Institution>
n/a

> <Link to Ligand in BindingDB>
http://www.bindingdb.org/bind/chemsearch/marvin/MolStructure.jsp?monomerid=50614599

> <Link to Ligand-Target Pair in BindingDB>
http://www.bindingdb.org/jsp/dbsearch/PrimarySearch_ki.jsp?energyterm=kJ/mole&tag=pol&polymerid=4676&target=DNA+repair+protein+RAD51+homolog+1&column=ki&startPg=0&Increment=50&submit=Search

> <Link to Ligand-Target Pair in BindingDB>
http://www.bindingdb.org/jsp/dbsearch/PrimarySearch_ki.jsp?energyterm=kJ/mole&tag=r21&monomerid=50614599&enzyme=DNA+repair+protein+RAD51+homolog+1&column=ki&startPg=0&Increment=50&submit=Search

> <Ligand HET ID in PDB>


> <PDB ID(s) for Ligand-Target Complex>


> <PubChem CID of Ligand>
166757776

> <PubChem SID of Ligand>
494504347

> <ChEBI ID of Ligand>


> <ChEMBL ID of Ligand>


> <DrugBank ID of Ligand>


> <IUPHAR_GRAC ID of Ligand>


> <KEGG ID of Ligand>


> <ZINC ID of Ligand>


> <Number of Protein Chains in Target (bigger than 1 implies a multichain complex)>
1

> <BindingDB Target Chain Sequence>
MAMQMQLEANADTSVEEESFGPQPISRLEQCGINANDVKKLEEAGFHTVEAVAYAPKKELINIKGISEAKADKILAEAAKLVPMGFTTATEFHQRRSEIIQITTGSKELDKLLQGGIETGSITEMFGEFRTGKTQICHTLAVTCQLPIDRGGGEGKAMYIDTEGTFRPERLLAVAERYGLSGSDVLDNVAYARAFNTDHQTQLLYQASAMMVESRYALLIVDSATALYRTDYSGRGELSARQMHLARFLRMLLRLADEFGVAVVITNQVVAQVDGAAMFAADPKKPIGGNIIAHASTTRLYLRKGRGETRICKIYDSPCLPEAEAMFAINADGVGDAKD

> <PDB ID(s) of Target Chain>
1N0W,5JZC,5NP7,5NWL,8BQ2,8BR2,8BSC,8GYK,8PBC,8PBD

> <UniProt (SwissProt) Recommended Name of Target Chain>
DNA repair protein RAD51 homolog 1

> <UniProt (SwissProt) Entry Name of Target Chain>
RAD51_HUMAN

> <UniProt (SwissProt) Primary ID of Target Chain>
Q06609

> <UniProt (SwissProt) Secondary ID(s) of Target Chain>
B0FXP0 B2R8T6 Q6FHX9 Q6ZNA8 Q9BV60

> <UniProt (SwissProt) Alternative ID(s) of Target Chain>


> <UniProt (TrEMBL) Submitted Name of Target Chain>


> <UniProt (TrEMBL) Entry Name of Target Chain>


> <UniProt (TrEMBL) Primary ID of Target Chain>


> <UniProt (TrEMBL) Secondary ID(s) of Target Chain>


> <UniProt (TrEMBL) Alternative ID(s) of Target Chain>


$$$$
5738263
  Mrv0541 11251415582D          

 26 29  0  0  0  0            999 V2000
    5.2223   -1.6500    0.0000 O   0  0  0  0  0  0  0  0  0  0  0  0
    4.5079   -0.4125    0.0000 N   0  0  0  0  0  0  0  0  0  0  0  0
    5.2223    0.8250    0.0000 N   0  0  0  0  0  0  0  0  0  0  0  0
    1.6500    2.0625    0.0000 N   0  0  0  0  0  0  0  0  0  0  0  0
    3.7934   -0.8250    0.0000 C   0  0  0  0  0  0  0  0  0  0  0  0
    4.5079    0.4125    0.0000 C   0  0  0  0  0  0  0  0  0  0  0  0
    5.9369   -0.4125    0.0000 C   0  0  0  0  0  0  0  0  0  0  0  0
    5.2223   -0.8250    0.0000 C   0  0  0  0  0  0  0  0  0  0  0  0
    3.7934   -1.6500    0.0000 C   0  0  0  0  0  0  0  0  0  0  0  0
    5.9369    0.4125    0.0000 C   0  0  0  0  0  0  0  0  0  0  0  0
    6.6743   -0.8536    0.0000 C   0  0  0  0  0  0  0  0  0  0  0  0
    3.7934    0.8250    0.0000 C   0  0  0  0  0  0  0  0  0  0  0  0
    6.6743    0.8536    0.0000 C   0  0  0  0  0  0  0  0  0  0  0  0
    3.0789   -2.0625    0.0000 C   0  0  0  0  0  0  0  0  0  0  0  0
    4.5079   -2.0625    0.0000 C   0  0  0  0  0  0  0  0  0  0  0  0
    7.4219   -0.4297    0.0000 C   0  0  0  0  0  0  0  0  0  0  0  0
    7.4219    0.4297    0.0000 C   0  0  0  0  0  0  0  0  0  0  0  0
    3.7934    1.6500    0.0000 C   0  0  0  0  0  0  0  0  0  0  0  0
    3.0789   -2.8875    0.0000 C   0  0  0  0  0  0  0  0  0  0  0  0
    4.5079   -2.8875    0.0000 C   0  0  0  0  0  0  0  0  0  0  0  0
    3.7934   -3.3000    0.0000 C   0  0  0  0  0  0  0  0  0  0  0  0
    3.0789    2.0625    0.0000 C   0  0  0  0  0  0  0  0  0  0  0  0
    3.0789    2.8875    0.0000 C   0  0  0  0  0  0  0  0  0  0  0  0
    2.3644    1.6500    0.0000 C   0  0  0  0  0  0  0  0  0  0  0  0
    2.3644    3.3000    0.0000 C   0  0  0  0  0  0  0  0  0  0  0  0
    1.6500    2.8875    0.0000 C   0  0  0  0  0  0  0  0  0  0  0  0
  1  8  2  0  0  0  0
  2  5  1  0  0  0  0
  2  6  1  0  0  0  0
  2  8  1  0  0  0  0
  3  6  2  0  0  0  0
  3 10  1  0  0  0  0
  4 24  2  0  0  0  0
  4 26  1  0  0  0  0
  5  9  1  0  0  0  0
  6 12  1  0  0  0  0
  7  8  1  0  0  0  0
  7 10  1  0  0  0  0
  7 11  2  0  0  0  0
  9 14  2  0  0  0  0
  9 15  1  0  0  0  0
 10 13  2  0  0  0  0
 11 16  1  0  0  0  0
 12 18  2  0  0  0  0
 13 17  1  0  0  0  0
 14 19  1  0  0  0  0
 15 20  2  0  0  0  0
 16 17  2  0  0  0  0
 18 22  1  0  0  0  0
 19 21  2  0  0  0  0
 20 21  1  0  0  0  0
 22 23  2  0  0  0  0
 22 24  1  0  0  0  0
 23 25  1  0  0  0  0
 25 26  2  0  0  0  0
M  END
> <From>
www.bindingDB.org

> <BindingDB Reactant_set_id>
51527536

> <Ligand InChI>
InChI=1S/C22H17N3O/c26-22-19-10-4-5-11-20(19)24-21(13-12-17-9-6-14-23-15-17)25(22)16-18-7-2-1-3-8-18/h1-15H,16H2/b13-12+

> <Ligand InChI Key>
GEKDQXSPTHHANP-OUKQBFOZSA-N

> <BindingDB MonomerID>
48804

> <BindingDB Ligand Name>
3-(phenylmethyl)-2-[(E)-2-(3-pyridinyl)ethenyl]-4-quinazolinone::3-(phenylmethyl)-2-[(E)-2-pyridin-3-ylethenyl]quinazolin-4-one::3-benzyl-2-[(E)-2-(3-pyridyl)vinyl]quinazolin-4-one::3-benzyl-2-[(E)-2-pyridin-3-ylethenyl]quinazolin-4-one::MLS000709026::SMR000289793::cid_5738263

> <Target Name>
DNA repair protein RAD51 homolog 1

> <Target Source Organism According to Curator or DataSource>
Homo sapiens

> <Ki (nM)>


> <IC50 (nM)>
 27400

> <Kd (nM)>


> <EC50 (nM)>


> <kon (M-1-s-1)>


> <koff (s-1)>


> <pH>


> <Temp C>


> <Curation/DataSource>
ChEMBL

> <Article DOI>


> <BindingDB Entry DOI>
10.7270/Q20G3QDN

> <PMID>
36990245

> <PubChem AID>


> <Patent Number>


> <Authors>
Demeyer, A; Fonteneau, L; Liennard, M; Foyer, C; Weigel, P; Laurent, AD; Lebreton, J; Fleury, F; Mathé-Allainmat, M

> <Date of publication>
5/1/2023

> <Date in BindingDB>
4/22/2024

> <Institution>
Nantes Universite

> <Link to Ligand in BindingDB>
http://www.bindingdb.org/bind/chemsearch/marvin/MolStructure.jsp?monomerid=48804

> <Link to Ligand-Target Pair in BindingDB>
http://www.bindingdb.org/jsp/dbsearch/PrimarySearch_ki.jsp?energyterm=kJ/mole&tag=pol&polymerid=4676&target=DNA+repair+protein+RAD51+homolog+1&column=ki&startPg=0&Increment=50&submit=Search

> <Link to Ligand-Target Pair in BindingDB>
http://www.bindingdb.org/jsp/dbsearch/PrimarySearch_ki.jsp?energyterm=kJ/mole&tag=r21&monomerid=48804&enzyme=DNA+repair+protein+RAD51+homolog+1&column=ki&startPg=0&Increment=50&submit=Search

> <Ligand HET ID in PDB>


> <PDB ID(s) for Ligand-Target Complex>


> <PubChem CID of Ligand>
5738263

> <PubChem SID of Ligand>
252629091

> <ChEBI ID of Ligand>


> <ChEMBL ID of Ligand>


> <DrugBank ID of Ligand>


> <IUPHAR_GRAC ID of Ligand>


> <KEGG ID of Ligand>


> <ZINC ID of Ligand>
ZINC04537641

> <Number of Protein Chains in Target (bigger than 1 implies a multichain complex)>
1

> <BindingDB Target Chain Sequence>
MAMQMQLEANADTSVEEESFGPQPISRLEQCGINANDVKKLEEAGFHTVEAVAYAPKKELINIKGISEAKADKILAEAAKLVPMGFTTATEFHQRRSEIIQITTGSKELDKLLQGGIETGSITEMFGEFRTGKTQICHTLAVTCQLPIDRGGGEGKAMYIDTEGTFRPERLLAVAERYGLSGSDVLDNVAYARAFNTDHQTQLLYQASAMMVESRYALLIVDSATALYRTDYSGRGELSARQMHLARFLRMLLRLADEFGVAVVITNQVVAQVDGAAMFAADPKKPIGGNIIAHASTTRLYLRKGRGETRICKIYDSPCLPEAEAMFAINADGVGDAKD

> <PDB ID(s) of Target Chain>
1N0W,5JZC,5NP7,5NWL,8BQ2,8BR2,8BSC,8GYK,8PBC,8PBD

> <UniProt (SwissProt) Recommended Name of Target Chain>
DNA repair protein RAD51 homolog 1

> <UniProt (SwissProt) Entry Name of Target Chain>
RAD51_HUMAN

> <UniProt (SwissProt) Primary ID of Target Chain>
Q06609

> <UniProt (SwissProt) Secondary ID(s) of Target Chain>
B0FXP0 B2R8T6 Q6FHX9 Q6ZNA8 Q9BV60

> <UniProt (SwissProt) Alternative ID(s) of Target Chain>


> <UniProt (TrEMBL) Submitted Name of Target Chain>


> <UniProt (TrEMBL) Entry Name of Target Chain>


> <UniProt (TrEMBL) Primary ID of Target Chain>


> <UniProt (TrEMBL) Secondary ID(s) of Target Chain>


> <UniProt (TrEMBL) Alternative ID(s) of Target Chain>


$$$$

  Mrv0541 11211411572D          

 28 29  0  0  0  0            999 V2000
    5.0267   -6.7467    0.0000 S   0  0  0  0  0  0  0  0  0  0  0  0
    4.3271   -9.6370    0.0000 S   0  0  0  0  0  0  0  0  0  0  0  0
    3.6107   -9.2247    0.0000 C   0  0  0  0  0  0  0  0  0  0  0  0
    5.7389   -7.1507    0.0000 C   0  0  0  0  0  0  0  0  0  0  0  0
    0.7538   -9.2247    0.0000 C   0  0  0  0  0  0  0  0  0  0  0  0
    8.6000   -7.1382    0.0000 C   0  0  0  0  0  0  0  0  0  0  0  0
    5.0392   -8.3876    0.0000 C   0  0  0  0  0  0  0  0  0  0  0  0
    4.3229   -7.9753    0.0000 C   0  0  0  0  0  0  0  0  0  0  0  0
    4.3104   -6.3344    0.0000 O   0  5  0  0  0  0  0  0  0  0  0  0
    5.0392  -10.0493    0.0000 O   0  5  0  0  0  0  0  0  0  0  0  0
    6.4510   -6.7384    0.0000 C   0  0  0  0  0  0  0  0  0  0  0  0
    2.8903   -9.6370    0.0000 C   0  0  0  0  0  0  0  0  0  0  0  0
    3.6107   -8.3959    0.0000 C   0  0  0  0  0  0  0  0  0  0  0  0
    5.7514   -7.9753    0.0000 C   0  0  0  0  0  0  0  0  0  0  0  0
    4.3146   -7.1632    0.0000 O   0  0  0  0  0  0  0  0  0  0  0  0
    4.3271  -10.4616    0.0000 O   0  0  0  0  0  0  0  0  0  0  0  0
    5.0392   -9.2205    0.0000 O   0  0  0  0  0  0  0  0  0  0  0  0
    5.0142   -5.9221    0.0000 O   0  0  0  0  0  0  0  0  0  0  0  0
    1.4660   -9.6370    0.0000 N   0  0  0  0  0  0  0  0  0  0  0  0
    7.8878   -6.7259    0.0000 N   0  0  0  0  0  0  0  0  0  0  0  0
    9.3121   -6.7259    0.0000 S   0  0  0  0  0  0  0  0  0  0  0  0
    0.0375   -9.6370    0.0000 S   0  0  0  0  0  0  0  0  0  0  0  0
    2.1781   -9.2247    0.0000 C   0  0  0  0  0  0  0  0  0  0  0  0
    7.1757   -7.1465    0.0000 C   0  0  0  0  0  0  0  0  0  0  0  0
    6.4635   -8.3876    0.0000 C   0  0  0  0  0  0  0  0  0  0  0  0
    2.8903   -7.9836    0.0000 C   0  0  0  0  0  0  0  0  0  0  0  0
    7.1757   -7.9711    0.0000 C   0  0  0  0  0  0  0  0  0  0  0  0
    2.1781   -8.3959    0.0000 C   0  0  0  0  0  0  0  0  0  0  0  0
  2  3  1  0  0  0  0
  3 13  2  0  0  0  0
  4  1  1  0  0  0  0
  5 19  2  0  0  0  0
  6 20  2  0  0  0  0
  7 14  1  0  0  0  0
  8  7  2  0  0  0  0
  9  1  1  0  0  0  0
 10  2  1  0  0  0  0
 11  4  2  0  0  0  0
 12  3  1  0  0  0  0
 13  8  1  0  0  0  0
 14  4  1  0  0  0  0
 15  1  2  0  0  0  0
 16  2  2  0  0  0  0
 17  2  2  0  0  0  0
 18  1  2  0  0  0  0
 19 23  1  0  0  0  0
 20 24  1  0  0  0  0
 21  6  2  0  0  0  0
 22  5  2  0  0  0  0
 23 28  1  0  0  0  0
 24 11  1  0  0  0  0
 25 14  2  0  0  0  0
 26 13  1  0  0  0  0
 27 25  1  0  0  0  0
 28 26  2  0  0  0  0
 27 24  2  0  0  0  0
 23 12  2  0  0  0  0
M  CHG  2   9  -1  10  -1
M  END
> <From>
www.bindingDB.org

> <BindingDB Reactant_set_id>
51527537

> <Ligand InChI>
InChI=1S/C16H10N2O6S4/c19-27(20,21)15-7-13(17-9-25)5-3-11(15)1-2-12-4-6-14(18-10-26)8-16(12)28(22,23)24/h1-8H,(H,19,20,21)(H,22,23,24)/p-2/b2-1+

> <Ligand InChI Key>
YSCNMFDFYJUPEF-OWOJBTEDSA-L

> <BindingDB MonomerID>
50118214

> <BindingDB Ligand Name>
CHEMBL133930::DIDS

> <Target Name>
DNA repair protein RAD51 homolog 1

> <Target Source Organism According to Curator or DataSource>
Homo sapiens

> <Ki (nM)>


> <IC50 (nM)>
 900

> <Kd (nM)>


> <EC50 (nM)>


> <kon (M-1-s-1)>


> <koff (s-1)>


> <pH>


> <Temp C>


> <Curation/DataSource>
ChEMBL

> <Article DOI>


> <BindingDB Entry DOI>
10.7270/Q20G3QDN

> <PMID>
36990245

> <PubChem AID>


> <Patent Number>


> <Authors>
Demeyer, A; Fonteneau, L; Liennard, M; Foyer, C; Weigel, P; Laurent, AD; Lebreton, J; Fleury, F; Mathé-Allainmat, M

> <Date of publication>
5/1/2023

> <Date in BindingDB>
4/22/2024

> <Institution>
Nantes Universite

> <Link to Ligand in BindingDB>
http://www.bindingdb.org/bind/chemsearch/marvin/MolStructure.jsp?monomerid=50118214

> <Link to Ligand-Target Pair in BindingDB>
http://www.bindingdb.org/jsp/dbsearch/PrimarySearch_ki.jsp?energyterm=kJ/mole&tag=pol&polymerid=4676&target=DNA+repair+protein+RAD51+homolog+1&column=ki&startPg=0&Increment=50&submit=Search

> <Link to Ligand-Target Pair in BindingDB>
http://www.bindingdb.org/jsp/dbsearch/PrimarySearch_ki.jsp?energyterm=kJ/mole&tag=r21&monomerid=50118214&enzyme=DNA+repair+protein+RAD51+homolog+1&column=ki&startPg=0&Increment=50&submit=Search

> <Ligand HET ID in PDB>


> <PDB ID(s) for Ligand-Target Complex>


> <PubChem CID of Ligand>
6146472

> <PubChem SID of Ligand>
104011551

> <ChEBI ID of Ligand>


> <ChEMBL ID of Ligand>
CHEMBL133930

> <DrugBank ID of Ligand>


> <IUPHAR_GRAC ID of Ligand>


> <KEGG ID of Ligand>
C11591

> <ZINC ID of Ligand>
ZINC06844860

> <Number of Protein Chains in Target (bigger than 1 implies a multichain complex)>
1

> <BindingDB Target Chain Sequence>
MAMQMQLEANADTSVEEESFGPQPISRLEQCGINANDVKKLEEAGFHTVEAVAYAPKKELINIKGISEAKADKILAEAAKLVPMGFTTATEFHQRRSEIIQITTGSKELDKLLQGGIETGSITEMFGEFRTGKTQICHTLAVTCQLPIDRGGGEGKAMYIDTEGTFRPERLLAVAERYGLSGSDVLDNVAYARAFNTDHQTQLLYQASAMMVESRYALLIVDSATALYRTDYSGRGELSARQMHLARFLRMLLRLADEFGVAVVITNQVVAQVDGAAMFAADPKKPIGGNIIAHASTTRLYLRKGRGETRICKIYDSPCLPEAEAMFAINADGVGDAKD

> <PDB ID(s) of Target Chain>
1N0W,5JZC,5NP7,5NWL,8BQ2,8BR2,8BSC,8GYK,8PBC,8PBD

> <UniProt (SwissProt) Recommended Name of Target Chain>
DNA repair protein RAD51 homolog 1

> <UniProt (SwissProt) Entry Name of Target Chain>
RAD51_HUMAN

> <UniProt (SwissProt) Primary ID of Target Chain>
Q06609

> <UniProt (SwissProt) Secondary ID(s) of Target Chain>
B0FXP0 B2R8T6 Q6FHX9 Q6ZNA8 Q9BV60

> <UniProt (SwissProt) Alternative ID(s) of Target Chain>


> <UniProt (TrEMBL) Submitted Name of Target Chain>


> <UniProt (TrEMBL) Entry Name of Target Chain>


> <UniProt (TrEMBL) Primary ID of Target Chain>


> <UniProt (TrEMBL) Secondary ID(s) of Target Chain>


> <UniProt (TrEMBL) Alternative ID(s) of Target Chain>


$$$$

     RDKit          2D

 30 29  0  0  0  0  0  0  0  0999 V2000
   -1.7844   -0.6728    0.0000 C   0  0  0  0  0  0  0  0  0  0  0  0
   -1.0698   -0.2605    0.0000 C   0  0  0  0  0  0  0  0  0  0  0  0
   -0.3580   -0.6725    0.0000 C   0  0  0  0  0  0  0  0  0  0  0  0
   -0.3580   -1.4976    0.0000 C   0  0  0  0  0  0  0  0  0  0  0  0
   -1.0681   -1.9095    0.0000 C   0  0  0  0  0  0  0  0  0  0  0  0
   -1.7844   -1.5013    0.0000 C   0  0  0  0  0  0  0  0  0  0  0  0
    0.3566   -0.2598    0.0000 C   0  0  0  0  0  0  0  0  0  0  0  0
    1.0712   -0.6725    0.0000 C   0  0  0  0  0  0  0  0  0  0  0  0
    1.7858   -0.2598    0.0000 C   0  0  0  0  0  0  0  0  0  0  0  0
    1.7860    0.5653    0.0000 C   0  0  0  0  0  0  0  0  0  0  0  0
    2.4989    0.9760    0.0000 C   0  0  0  0  0  0  0  0  0  0  0  0
    3.2137    0.5633    0.0000 C   0  0  0  0  0  0  0  0  0  0  0  0
    3.2154   -0.2577    0.0000 C   0  0  0  0  0  0  0  0  0  0  0  0
    2.5036   -0.6742    0.0000 C   0  0  0  0  0  0  0  0  0  0  0  0
    1.0714    0.9779    0.0000 S   0  0  0  0  0  0  0  0  0  0  0  0
    0.3568    0.5653    0.0000 O   0  0  0  0  0  0  0  0  0  0  0  0
    0.3566   -1.9102    0.0000 S   0  0  0  0  0  0  0  0  0  0  0  0
    1.0712   -1.4976    0.0000 O   0  0  0  0  0  0  0  0  0  0  0  0
    1.4848    1.6938    0.0000 O   0  0  0  0  0  0  0  0  0  0  0  0
    0.6596    1.6938    0.0000 O   0  0  0  0  0  0  0  0  0  0  0  0
   -0.0567   -2.6262    0.0000 O   0  0  0  0  0  0  0  0  0  0  0  0
    0.7683   -2.6262    0.0000 O   0  0  0  0  0  0  0  0  0  0  0  0
   -2.4991   -1.9139    0.0000 N   0  0  0  0  0  0  0  0  0  0  0  0
    3.9284    0.9758    0.0000 N   0  0  0  0  0  0  0  0  0  0  0  0
    3.9284    1.8011    0.0000 N   0  0  0  0  0  0  0  0  0  0  0  0
    3.9284    2.6262    0.0000 N   0  0  0  0  0  0  0  0  0  0  0  0
   -3.2137   -1.5013    0.0000 N   0  0  0  0  0  0  0  0  0  0  0  0
   -3.9284   -1.0888    0.0000 N   0  0  0  0  0  0  0  0  0  0  0  0
    1.7874   -1.9552    0.0000 Na  0  0  0  0  0 15  0  0  0  0  0  0
   -0.7389    1.0557    0.0000 Na  0  0  0  0  0 15  0  0  0  0  0  0
  2  1  2  0
  3  2  1  0
  4  3  2  0
  5  4  1  0
  1  6  1  0
  6  5  2  0
  3  7  1  0
  7  8  2  0
  8  9  1  0
 10  9  2  0
 11 10  1  0
 12 11  2  0
 13 12  1  0
 14 13  2  0
  9 14  1  0
 10 15  1  0
 15 16  1  0
  4 17  1  0
 17 18  1  0
 15 19  2  0
 15 20  2  0
 17 21  2  0
 17 22  2  0
  6 23  1  0
 12 24  1  0
 24 25  2  0
 25 26  2  0
 23 27  2  0
 27 28  2  0
M  CHG  8  16  -1  18  -1  25   1  26  -1  27   1  28  -1  29   1  30   1
M  END
> <From>
www.bindingDB.org

> <BindingDB Reactant_set_id>
51527538

> <Ligand InChI>
InChI=1S/C14H10N6O6S2.2Na/c15-19-17-11-5-3-9(13(7-11)27(21,22)23)1-2-10-4-6-12(18-20-16)8-14(10)28(24,25)26;;/h1-8H,(H,21,22,23)(H,24,25,26);;/q;2*+1/p-2/b2-1+;;

> <Ligand InChI Key>
HYYYTIDWAIQGHI-SEPHDYHBSA-L

> <BindingDB MonomerID>
50614580

> <BindingDB Ligand Name>
CHEMBL5269627

> <Target Name>
DNA repair protein RAD51 homolog 1

> <Target Source Organism According to Curator or DataSource>
Homo sapiens

> <Ki (nM)>


> <IC50 (nM)>
 44300

> <Kd (nM)>


> <EC50 (nM)>


> <kon (M-1-s-1)>


> <koff (s-1)>


> <pH>


> <Temp C>


> <Curation/DataSource>
ChEMBL

> <Article DOI>


> <BindingDB Entry DOI>
10.7270/Q20G3QDN

> <PMID>
36990245

> <PubChem AID>


> <Patent Number>


> <Authors>
Demeyer, A; Fonteneau, L; Liennard, M; Foyer, C; Weigel, P; Laurent, AD; Lebreton, J; Fleury, F; Mathé-Allainmat, M

> <Date of publication>
5/1/2023

> <Date in BindingDB>
4/22/2024

> <Institution>
Nantes Universite

> <Link to Ligand in BindingDB>
http://www.bindingdb.org/bind/chemsearch/marvin/MolStructure.jsp?monomerid=50614580

> <Link to Ligand-Target Pair in BindingDB>
http://www.bindingdb.org/rwd/jsp/dbsearch/PrimarySearch_ki.jsp?energyterm=kJ/mole&tag=pol&polymerid=4676&target=DNA+repair+protein+RAD51+homolog+1&column=ki&startPg=0&Increment=50&submit=Search

> <Link to Ligand-Target Pair in BindingDB>
http://www.bindingdb.org/rwd/jsp/dbsearch/PrimarySearch_ki.jsp?energyterm=kJ/mole&tag=r21&monomerid=50614580&enzyme=DNA+repair+protein+RAD51+homolog+1&column=ki&startPg=0&Increment=50&submit=Search

> <Ligand HET ID in PDB>


> <PDB ID(s) for Ligand-Target Complex>


> <PubChem CID of Ligand>
6057277

> <PubChem SID of Ligand>
494504328

> <ChEBI ID of Ligand>


> <ChEMBL ID of Ligand>


> <DrugBank ID of Ligand>


> <IUPHAR_GRAC ID of Ligand>


> <KEGG ID of Ligand>


> <ZINC ID of Ligand>


> <Number of Protein Chains in Target (bigger than 1 implies a multichain complex)>
1

> <BindingDB Target Chain Sequence>
MAMQMQLEANADTSVEEESFGPQPISRLEQCGINANDVKKLEEAGFHTVEAVAYAPKKELINIKGISEAKADKILAEAAKLVPMGFTTATEFHQRRSEIIQITTGSKELDKLLQGGIETGSITEMFGEFRTGKTQICHTLAVTCQLPIDRGGGEGKAMYIDTEGTFRPERLLAVAERYGLSGSDVLDNVAYARAFNTDHQTQLLYQASAMMVESRYALLIVDSATALYRTDYSGRGELSARQMHLARFLRMLLRLADEFGVAVVITNQVVAQVDGAAMFAADPKKPIGGNIIAHASTTRLYLRKGRGETRICKIYDSPCLPEAEAMFAINADGVGDAKD

> <PDB ID(s) of Target Chain>


> <UniProt (SwissProt) Recommended Name of Target Chain>
DNA repair protein RAD51 homolog 1

> <UniProt (SwissProt) Entry Name of Target Chain>
RAD51_HUMAN

> <UniProt (SwissProt) Primary ID of Target Chain>
Q06609

> <UniProt (SwissProt) Secondary ID(s) of Target Chain>
B0FXP0 B2R8T6 Q6FHX9 Q6ZNA8 Q9BV60

> <UniProt (SwissProt) Alternative ID(s) of Target Chain>


> <UniProt (TrEMBL) Submitted Name of Target Chain>


> <UniProt (TrEMBL) Entry Name of Target Chain>


> <UniProt (TrEMBL) Primary ID of Target Chain>


> <UniProt (TrEMBL) Secondary ID(s) of Target Chain>


> <UniProt (TrEMBL) Alternative ID(s) of Target Chain>


$$$$

     RDKit          2D

 31 30  0  0  0  0  0  0  0  0999 V2000
   -3.2137    0.2623    0.0000 C   0  0  0  0  0  0  0  0  0  0  0  0
   -2.4992    0.6746    0.0000 C   0  0  0  0  0  0  0  0  0  0  0  0
   -1.7873    0.2627    0.0000 C   0  0  0  0  0  0  0  0  0  0  0  0
   -1.7873   -0.5624    0.0000 C   0  0  0  0  0  0  0  0  0  0  0  0
   -2.4973   -0.9742    0.0000 C   0  0  0  0  0  0  0  0  0  0  0  0
   -3.2137   -0.5661    0.0000 C   0  0  0  0  0  0  0  0  0  0  0  0
   -1.0726    0.6753    0.0000 C   0  0  0  0  0  0  0  0  0  0  0  0
   -0.3580    0.2627    0.0000 C   0  0  0  0  0  0  0  0  0  0  0  0
    0.3565    0.6753    0.0000 C   0  0  0  0  0  0  0  0  0  0  0  0
    0.3568    1.5005    0.0000 C   0  0  0  0  0  0  0  0  0  0  0  0
    1.0696    1.9112    0.0000 C   0  0  0  0  0  0  0  0  0  0  0  0
    1.7845    1.4985    0.0000 C   0  0  0  0  0  0  0  0  0  0  0  0
    1.7861    0.6774    0.0000 C   0  0  0  0  0  0  0  0  0  0  0  0
    1.0742    0.2609    0.0000 C   0  0  0  0  0  0  0  0  0  0  0  0
   -0.3578    1.9132    0.0000 S   0  0  0  0  0  0  0  0  0  0  0  0
   -1.0724    1.5005    0.0000 O   0  0  0  0  0  0  0  0  0  0  0  0
   -1.0726   -0.9750    0.0000 S   0  0  0  0  0  0  0  0  0  0  0  0
   -0.3580   -0.5624    0.0000 O   0  0  0  0  0  0  0  0  0  0  0  0
    0.0555    2.6291    0.0000 O   0  0  0  0  0  0  0  0  0  0  0  0
   -0.7696    2.6291    0.0000 O   0  0  0  0  0  0  0  0  0  0  0  0
   -1.4860   -1.6910    0.0000 O   0  0  0  0  0  0  0  0  0  0  0  0
   -0.6608   -1.6910    0.0000 O   0  0  0  0  0  0  0  0  0  0  0  0
   -3.9284   -0.9787    0.0000 N   0  0  0  0  0  0  0  0  0  0  0  0
   -3.9284   -1.8039    0.0000 C   0  0  0  0  0  0  0  0  0  0  0  0
   -3.9284   -2.6291    0.0000 S   0  0  0  0  0  0  0  0  0  0  0  0
    2.4992    1.9111    0.0000 N   0  0  0  0  0  0  0  0  0  0  0  0
    3.2137    1.4985    0.0000 C   0  0  0  0  0  0  0  0  0  0  0  0
    3.9284    1.9111    0.0000 C   0  0  0  0  0  0  0  0  0  0  0  0
    3.2137    0.6733    0.0000 O   0  0  0  0  0  0  0  0  0  0  0  0
   -2.1682    1.5756    0.0000 Na  0  0  0  0  0 15  0  0  0  0  0  0
    0.3928   -1.0545    0.0000 Na  0  0  0  0  0 15  0  0  0  0  0  0
  2  1  2  0
  3  2  1  0
  4  3  2  0
  5  4  1  0
  1  6  1  0
  6  5  2  0
  3  7  1  0
  7  8  2  0
  8  9  1  0
 10  9  2  0
 11 10  1  0
 12 11  2  0
 13 12  1  0
 14 13  2  0
  9 14  1  0
 10 15  1  0
 15 16  1  0
  4 17  1  0
 17 18  1  0
 15 19  2  0
 15 20  2  0
 17 21  2  0
 17 22  2  0
  6 23  1  0
 23 24  2  0
 24 25  2  0
 12 26  1  0
 26 27  1  0
 27 28  1  0
 27 29  2  0
M  CHG  4  16  -1  18  -1  30   1  31   1
M  END
> <From>
www.bindingDB.org

> <BindingDB Reactant_set_id>
51527539

> <Ligand InChI>
InChI=1S/C17H14N2O7S3.2Na/c1-11(20)19-15-7-5-13(17(9-15)29(24,25)26)3-2-12-4-6-14(18-10-27)8-16(12)28(21,22)23;;/h2-9H,1H3,(H,19,20)(H,21,22,23)(H,24,25,26);;/q;2*+1/p-2/b3-2+;;

> <Ligand InChI Key>
NPAWAMRXPHRVQY-WTVBWJGASA-L

> <BindingDB MonomerID>
50614589

> <BindingDB Ligand Name>
CHEMBL5287615

> <Target Name>
DNA repair protein RAD51 homolog 1

> <Target Source Organism According to Curator or DataSource>
Homo sapiens

> <Ki (nM)>


> <IC50 (nM)>
 29000

> <Kd (nM)>


> <EC50 (nM)>


> <kon (M-1-s-1)>


> <koff (s-1)>


> <pH>


> <Temp C>


> <Curation/DataSource>
ChEMBL

> <Article DOI>


> <BindingDB Entry DOI>
10.7270/Q20G3QDN

> <PMID>
36990245

> <PubChem AID>


> <Patent Number>


> <Authors>
Demeyer, A; Fonteneau, L; Liennard, M; Foyer, C; Weigel, P; Laurent, AD; Lebreton, J; Fleury, F; Mathé-Allainmat, M

> <Date of publication>
5/1/2023

> <Date in BindingDB>
4/22/2024

> <Institution>
Nantes Universite

> <Link to Ligand in BindingDB>
http://www.bindingdb.org/bind/chemsearch/marvin/MolStructure.jsp?monomerid=50614589

> <Link to Ligand-Target Pair in BindingDB>
http://www.bindingdb.org/rwd/jsp/dbsearch/PrimarySearch_ki.jsp?energyterm=kJ/mole&tag=pol&polymerid=4676&target=DNA+repair+protein+RAD51+homolog+1&column=ki&startPg=0&Increment=50&submit=Search

> <Link to Ligand-Target Pair in BindingDB>
http://www.bindingdb.org/rwd/jsp/dbsearch/PrimarySearch_ki.jsp?energyterm=kJ/mole&tag=r21&monomerid=50614589&enzyme=DNA+repair+protein+RAD51+homolog+1&column=ki&startPg=0&Increment=50&submit=Search

> <Ligand HET ID in PDB>


> <PDB ID(s) for Ligand-Target Complex>


> <PubChem CID of Ligand>
5944675

> <PubChem SID of Ligand>
494504337

> <ChEBI ID of Ligand>


> <ChEMBL ID of Ligand>


> <DrugBank ID of Ligand>


> <IUPHAR_GRAC ID of Ligand>


> <KEGG ID of Ligand>


> <ZINC ID of Ligand>


> <Number of Protein Chains in Target (bigger than 1 implies a multichain complex)>
1

> <BindingDB Target Chain Sequence>
MAMQMQLEANADTSVEEESFGPQPISRLEQCGINANDVKKLEEAGFHTVEAVAYAPKKELINIKGISEAKADKILAEAAKLVPMGFTTATEFHQRRSEIIQITTGSKELDKLLQGGIETGSITEMFGEFRTGKTQICHTLAVTCQLPIDRGGGEGKAMYIDTEGTFRPERLLAVAERYGLSGSDVLDNVAYARAFNTDHQTQLLYQASAMMVESRYALLIVDSATALYRTDYSGRGELSARQMHLARFLRMLLRLADEFGVAVVITNQVVAQVDGAAMFAADPKKPIGGNIIAHASTTRLYLRKGRGETRICKIYDSPCLPEAEAMFAINADGVGDAKD

> <PDB ID(s) of Target Chain>


> <UniProt (SwissProt) Recommended Name of Target Chain>
DNA repair protein RAD51 homolog 1

> <UniProt (SwissProt) Entry Name of Target Chain>
RAD51_HUMAN

> <UniProt (SwissProt) Primary ID of Target Chain>
Q06609

> <UniProt (SwissProt) Secondary ID(s) of Target Chain>
B0FXP0 B2R8T6 Q6FHX9 Q6ZNA8 Q9BV60

> <UniProt (SwissProt) Alternative ID(s) of Target Chain>


> <UniProt (TrEMBL) Submitted Name of Target Chain>


> <UniProt (TrEMBL) Entry Name of Target Chain>


> <UniProt (TrEMBL) Primary ID of Target Chain>


> <UniProt (TrEMBL) Secondary ID(s) of Target Chain>


> <UniProt (TrEMBL) Alternative ID(s) of Target Chain>


$$$$
1074953
  Mrv0541 11251415402D          

 22 24  0  0  0  0            999 V2000
    2.2047    1.9079    0.0000 Cl  0  0  0  0  0  0  0  0  0  0  0  0
    1.6731   -2.5041    0.0000 Cl  0  0  0  0  0  0  0  0  0  0  0  0
    3.1021   -3.3291    0.0000 Cl  0  0  0  0  0  0  0  0  0  0  0  0
    4.9693    3.2428    0.0000 O   0  0  0  0  0  0  0  0  0  0  0  0
    4.5542    0.2010    0.0000 O   0  0  0  0  0  0  0  0  0  0  0  0
    1.6500    0.2010    0.0000 O   0  0  0  0  0  0  0  0  0  0  0  0
    3.9995    1.9079    0.0000 N   0  0  0  0  0  0  0  0  0  0  0  0
    3.1021   -0.0290    0.0000 N   0  0  0  0  0  0  0  0  0  0  0  0
    4.8200    1.8217    0.0000 C   0  0  0  0  0  0  0  0  0  0  0  0
    3.6639    2.6616    0.0000 C   0  0  0  0  0  0  0  0  0  0  0  0
    3.5146    1.2405    0.0000 C   0  0  0  0  0  0  0  0  0  0  0  0
    4.1489    3.3291    0.0000 C   0  0  0  0  0  0  0  0  0  0  0  0
    5.3049    2.4891    0.0000 C   0  0  0  0  0  0  0  0  0  0  0  0
    3.7695    0.4559    0.0000 C   0  0  0  0  0  0  0  0  0  0  0  0
    2.6896    1.2405    0.0000 C   0  0  0  0  0  0  0  0  0  0  0  0
    2.4347    0.4559    0.0000 C   0  0  0  0  0  0  0  0  0  0  0  0
    3.1021   -0.8540    0.0000 C   0  0  0  0  0  0  0  0  0  0  0  0
    2.3876   -1.2665    0.0000 C   0  0  0  0  0  0  0  0  0  0  0  0
    3.8166   -1.2665    0.0000 C   0  0  0  0  0  0  0  0  0  0  0  0
    2.3876   -2.0916    0.0000 C   0  0  0  0  0  0  0  0  0  0  0  0
    3.8166   -2.0916    0.0000 C   0  0  0  0  0  0  0  0  0  0  0  0
    3.1021   -2.5041    0.0000 C   0  0  0  0  0  0  0  0  0  0  0  0
  1 15  1  0  0  0  0
  2 20  1  0  0  0  0
  3 22  1  0  0  0  0
  4 12  1  0  0  0  0
  4 13  1  0  0  0  0
  5 14  2  0  0  0  0
  6 16  2  0  0  0  0
  7  9  1  0  0  0  0
  7 10  1  0  0  0  0
  7 11  1  0  0  0  0
  8 14  1  0  0  0  0
  8 16  1  0  0  0  0
  8 17  1  0  0  0  0
  9 13  1  0  0  0  0
 10 12  1  0  0  0  0
 11 14  1  0  0  0  0
 11 15  2  0  0  0  0
 15 16  1  0  0  0  0
 17 18  2  0  0  0  0
 17 19  1  0  0  0  0
 18 20  1  0  0  0  0
 19 21  2  0  0  0  0
 20 22  2  0  0  0  0
 21 22  1  0  0  0  0
M  END
> <From>
www.bindingDB.org

> <BindingDB Reactant_set_id>
51527540

> <Ligand InChI>
InChI=1S/C14H11Cl3N2O3/c15-9-2-1-8(7-10(9)16)19-13(20)11(17)12(14(19)21)18-3-5-22-6-4-18/h1-2,7H,3-6H2

> <Ligand InChI Key>
MWSUIZKGNWELRF-UHFFFAOYSA-N

> <BindingDB MonomerID>
39120

> <BindingDB Ligand Name>
3-chloranyl-1-(3,4-dichlorophenyl)-4-morpholin-4-yl-pyrrole-2,5-dione::3-chloro-1-(3,4-dichlorophenyl)-4-(4-morpholinyl)pyrrole-2,5-dione::3-chloro-1-(3,4-dichlorophenyl)-4-morpholin-4-ylpyrrole-2,5-dione::3-chloro-1-(3,4-dichlorophenyl)-4-morpholino-3-pyrroline-2,5-quinone::MLS-0067124.0001::cid_1074953

> <Target Name>
DNA repair protein RAD51 homolog 1

> <Target Source Organism According to Curator or DataSource>
Homo sapiens

> <Ki (nM)>


> <IC50 (nM)>
 20000

> <Kd (nM)>


> <EC50 (nM)>


> <kon (M-1-s-1)>


> <koff (s-1)>


> <pH>


> <Temp C>


> <Curation/DataSource>
ChEMBL

> <Article DOI>


> <BindingDB Entry DOI>
10.7270/Q20G3QDN

> <PMID>
36990245

> <PubChem AID>


> <Patent Number>


> <Authors>
Demeyer, A; Fonteneau, L; Liennard, M; Foyer, C; Weigel, P; Laurent, AD; Lebreton, J; Fleury, F; Mathé-Allainmat, M

> <Date of publication>
5/1/2023

> <Date in BindingDB>
4/22/2024

> <Institution>
Nantes Universite

> <Link to Ligand in BindingDB>
http://www.bindingdb.org/bind/chemsearch/marvin/MolStructure.jsp?monomerid=39120

> <Link to Ligand-Target Pair in BindingDB>
http://www.bindingdb.org/jsp/dbsearch/PrimarySearch_ki.jsp?energyterm=kJ/mole&tag=pol&polymerid=4676&target=DNA+repair+protein+RAD51+homolog+1&column=ki&startPg=0&Increment=50&submit=Search

> <Link to Ligand-Target Pair in BindingDB>
http://www.bindingdb.org/jsp/dbsearch/PrimarySearch_ki.jsp?energyterm=kJ/mole&tag=r21&monomerid=39120&enzyme=DNA+repair+protein+RAD51+homolog+1&column=ki&startPg=0&Increment=50&submit=Search

> <Ligand HET ID in PDB>


> <PDB ID(s) for Ligand-Target Complex>


> <PubChem CID of Ligand>
1074953

> <PubChem SID of Ligand>
252620019

> <ChEBI ID of Ligand>


> <ChEMBL ID of Ligand>


> <DrugBank ID of Ligand>


> <IUPHAR_GRAC ID of Ligand>


> <KEGG ID of Ligand>


> <ZINC ID of Ligand>
ZINC00783201

> <Number of Protein Chains in Target (bigger than 1 implies a multichain complex)>
1

> <BindingDB Target Chain Sequence>
MAMQMQLEANADTSVEEESFGPQPISRLEQCGINANDVKKLEEAGFHTVEAVAYAPKKELINIKGISEAKADKILAEAAKLVPMGFTTATEFHQRRSEIIQITTGSKELDKLLQGGIETGSITEMFGEFRTGKTQICHTLAVTCQLPIDRGGGEGKAMYIDTEGTFRPERLLAVAERYGLSGSDVLDNVAYARAFNTDHQTQLLYQASAMMVESRYALLIVDSATALYRTDYSGRGELSARQMHLARFLRMLLRLADEFGVAVVITNQVVAQVDGAAMFAADPKKPIGGNIIAHASTTRLYLRKGRGETRICKIYDSPCLPEAEAMFAINADGVGDAKD

> <PDB ID(s) of Target Chain>
1N0W,5JZC,5NP7,5NWL,8BQ2,8BR2,8BSC,8GYK,8PBC,8PBD

> <UniProt (SwissProt) Recommended Name of Target Chain>
DNA repair protein RAD51 homolog 1

> <UniProt (SwissProt) Entry Name of Target Chain>
RAD51_HUMAN

> <UniProt (SwissProt) Primary ID of Target Chain>
Q06609

> <UniProt (SwissProt) Secondary ID(s) of Target Chain>
B0FXP0 B2R8T6 Q6FHX9 Q6ZNA8 Q9BV60

> <UniProt (SwissProt) Alternative ID(s) of Target Chain>


> <UniProt (TrEMBL) Submitted Name of Target Chain>


> <UniProt (TrEMBL) Entry Name of Target Chain>


> <UniProt (TrEMBL) Primary ID of Target Chain>


> <UniProt (TrEMBL) Secondary ID(s) of Target Chain>


> <UniProt (TrEMBL) Alternative ID(s) of Target Chain>


$$$$

  Mrv0541 11241415252D          

193196  0  0  0  0            999 V2000
    1.5035  -28.0612    0.0000 C   0  0  1  0  0  0  0  0  0  0  0  0
    2.2197  -27.6447    0.0000 C   0  0  0  0  0  0  0  0  0  0  0  0
    0.7913  -27.6447    0.0000 N   0  0  0  0  0  0  0  0  0  0  0  0
   19.3738  -27.6447    0.0000 C   0  0  0  0  0  0  0  0  0  0  0  0
   15.0884  -27.6447    0.0000 C   0  0  0  0  0  0  0  0  0  0  0  0
   36.5320  -27.6447    0.0000 C   0  0  0  0  0  0  0  0  0  0  0  0
   13.6600  -27.6447    0.0000 N   0  0  0  0  0  0  0  0  0  0  0  0
   35.1035  -27.6447    0.0000 N   0  0  0  0  0  0  0  0  0  0  0  0
   17.9454  -27.6447    0.0000 N   0  0  0  0  0  0  0  0  0  0  0  0
    0.0750  -28.0612    0.0000 C   0  0  0  0  0  0  0  0  0  0  0  0
   27.9529  -27.6447    0.0000 C   0  0  0  0  0  0  0  0  0  0  0  0
   21.5186  -28.0612    0.0000 C   0  0  0  0  0  0  0  0  0  0  0  0
   34.3873  -28.0612    0.0000 C   0  0  0  0  0  0  0  0  0  0  0  0
   12.9436  -28.0612    0.0000 C   0  0  0  0  0  0  0  0  0  0  0  0
   17.2332  -28.0612    0.0000 C   0  0  0  0  0  0  0  0  0  0  0  0
   40.8174  -27.6447    0.0000 C   0  0  0  0  0  0  0  0  0  0  0  0
   32.2424  -27.6447    0.0000 C   0  0  0  0  0  0  0  0  0  0  0  0
   30.0935  -28.0612    0.0000 C   0  0  0  0  0  0  0  0  0  0  0  0
   42.9622  -28.0612    0.0000 C   0  0  0  0  0  0  0  0  0  0  0  0
   -2.0698  -27.6447    0.0000 C   0  0  0  0  0  0  0  0  0  0  0  0
   20.0901  -28.0612    0.0000 N   0  0  0  0  0  0  0  0  0  0  0  0
   25.8081  -28.0612    0.0000 C   0  0  0  0  0  0  0  0  0  0  0  0
    4.3646  -28.0612    0.0000 C   0  0  0  0  0  0  0  0  0  0  0  0
   38.6768  -28.0612    0.0000 C   0  0  0  0  0  0  0  0  0  0  0  0
   23.6634  -27.6447    0.0000 C   0  0  0  0  0  0  0  0  0  0  0  0
   10.7989  -27.6447    0.0000 C   0  0  0  0  0  0  0  0  0  0  0  0
   26.5202  -27.6447    0.0000 N   0  0  0  0  0  0  0  0  0  0  0  0
    5.0767  -27.6447    0.0000 N   0  0  0  0  0  0  0  0  0  0  0  0
   20.8065  -27.6447    0.0000 C   0  0  1  0  0  0  0  0  0  0  0  0
   27.2366  -28.0612    0.0000 C   0  0  1  0  0  0  0  0  0  0  0  0
   30.8140  -27.6447    0.0000 N   0  0  0  0  0  0  0  0  0  0  0  0
   28.6651  -28.0612    0.0000 N   0  0  0  0  0  0  0  0  0  0  0  0
   39.3889  -27.6447    0.0000 N   0  0  0  0  0  0  0  0  0  0  0  0
    2.9319  -28.0612    0.0000 N   0  0  0  0  0  0  0  0  0  0  0  0
    5.7971  -28.0612    0.0000 C   0  0  2  0  0  0  0  0  0  0  0  0
   41.5338  -28.0612    0.0000 N   0  0  0  0  0  0  0  0  0  0  0  0
   -1.3535  -28.0612    0.0000 N   0  0  0  0  0  0  0  0  0  0  0  0
   14.3721  -28.0612    0.0000 C   0  0  1  0  0  0  0  0  0  0  0  0
   35.8157  -28.0612    0.0000 C   0  0  1  0  0  0  0  0  0  0  0  0
   18.6616  -28.0612    0.0000 C   0  0  1  0  0  0  0  0  0  0  0  0
   43.6785  -27.6447    0.0000 N   0  0  0  0  0  0  0  0  0  0  0  0
   15.8005  -28.0612    0.0000 N   0  0  0  0  0  0  0  0  0  0  0  0
   37.2442  -28.0612    0.0000 N   0  0  0  0  0  0  0  0  0  0  0  0
   31.5303  -28.0612    0.0000 C   0  0  1  0  0  0  0  0  0  0  0  0
   40.1053  -28.0612    0.0000 C   0  0  1  0  0  0  0  0  0  0  0  0
   22.2349  -27.6447    0.0000 N   0  0  0  0  0  0  0  0  0  0  0  0
   24.3797  -28.0612    0.0000 N   0  0  0  0  0  0  0  0  0  0  0  0
   32.9588  -28.0612    0.0000 N   0  0  0  0  0  0  0  0  0  0  0  0
   11.5151  -28.0612    0.0000 N   0  0  0  0  0  0  0  0  0  0  0  0
    6.5093  -27.6447    0.0000 C   0  0  0  0  0  0  0  0  0  0  0  0
   40.1053  -28.8816    0.0000 C   0  0  0  0  0  0  0  0  0  0  0  0
   31.5303  -28.8816    0.0000 C   0  0  0  0  0  0  0  0  0  0  0  0
   -0.6414  -27.6447    0.0000 C   0  0  1  0  0  0  0  0  0  0  0  0
   42.2500  -27.6447    0.0000 C   0  0  1  0  0  0  0  0  0  0  0  0
   29.3855  -27.6447    0.0000 C   0  0  1  0  0  0  0  0  0  0  0  0
   -2.7819  -28.0612    0.0000 C   0  0  1  0  0  0  0  0  0  0  0  0
   44.3907  -28.0612    0.0000 C   0  0  2  0  0  0  0  0  0  0  0  0
   45.1070  -27.6447    0.0000 C   0  0  0  0  0  0  0  0  0  0  0  0
   -3.4983  -27.6447    0.0000 N   0  0  0  0  0  0  0  0  0  0  0  0
    9.3704  -27.6447    0.0000 N   0  0  0  0  0  0  0  0  0  0  0  0
   25.0919  -27.6447    0.0000 C   0  0  1  0  0  0  0  0  0  0  0  0
   40.8174  -29.2981    0.0000 C   0  0  0  0  0  0  0  0  0  0  0  0
   32.2424  -29.2981    0.0000 C   0  0  0  0  0  0  0  0  0  0  0  0
    8.6540  -28.0612    0.0000 C   0  0  0  0  0  0  0  0  0  0  0  0
    7.2256  -28.0612    0.0000 N   0  0  0  0  0  0  0  0  0  0  0  0
   16.5169  -27.6447    0.0000 C   0  0  1  0  0  0  0  0  0  0  0  0
    3.6482  -27.6447    0.0000 C   0  0  1  0  0  0  0  0  0  0  0  0
   33.6709  -27.6447    0.0000 C   0  0  1  0  0  0  0  0  0  0  0  0
   12.2273  -27.6447    0.0000 C   0  0  1  0  0  0  0  0  0  0  0  0
   37.9605  -27.6447    0.0000 C   0  0  1  0  0  0  0  0  0  0  0  0
   22.9470  -28.0612    0.0000 C   0  0  1  0  0  0  0  0  0  0  0  0
   -4.2146  -28.0612    0.0000 C   0  0  0  0  0  0  0  0  0  0  0  0
   10.0867  -28.0612    0.0000 C   0  0  1  0  0  0  0  0  0  0  0  0
   25.8081  -25.5832    0.0000 C   0  0  0  0  0  0  0  0  0  0  0  0
    2.2197  -26.8201    0.0000 O   0  0  0  0  0  0  0  0  0  0  0  0
   19.3738  -26.8201    0.0000 O   0  0  0  0  0  0  0  0  0  0  0  0
   15.0884  -26.8201    0.0000 O   0  0  0  0  0  0  0  0  0  0  0  0
   36.5320  -26.8201    0.0000 O   0  0  0  0  0  0  0  0  0  0  0  0
   21.5186  -28.8816    0.0000 O   0  0  0  0  0  0  0  0  0  0  0  0
   27.9529  -26.8201    0.0000 O   0  0  0  0  0  0  0  0  0  0  0  0
    0.0750  -28.8816    0.0000 O   0  0  0  0  0  0  0  0  0  0  0  0
   17.2332  -28.8816    0.0000 O   0  0  0  0  0  0  0  0  0  0  0  0
   34.3873  -28.8816    0.0000 O   0  0  0  0  0  0  0  0  0  0  0  0
   12.9436  -28.8816    0.0000 O   0  0  0  0  0  0  0  0  0  0  0  0
   42.9622  -28.8816    0.0000 O   0  0  0  0  0  0  0  0  0  0  0  0
   32.2424  -26.8201    0.0000 O   0  0  0  0  0  0  0  0  0  0  0  0
   30.0935  -28.8816    0.0000 O   0  0  0  0  0  0  0  0  0  0  0  0
   40.8174  -26.8201    0.0000 O   0  0  0  0  0  0  0  0  0  0  0  0
   -2.0698  -26.8201    0.0000 O   0  0  0  0  0  0  0  0  0  0  0  0
   38.6768  -28.8816    0.0000 O   0  0  0  0  0  0  0  0  0  0  0  0
   23.6634  -26.8201    0.0000 O   0  0  0  0  0  0  0  0  0  0  0  0
   25.8081  -28.8816    0.0000 O   0  0  0  0  0  0  0  0  0  0  0  0
   10.7989  -26.8201    0.0000 O   0  0  0  0  0  0  0  0  0  0  0  0
    4.3646  -28.8816    0.0000 O   0  0  0  0  0  0  0  0  0  0  0  0
   -0.6414  -26.8201    0.0000 C   0  0  0  0  0  0  0  0  0  0  0  0
   42.2500  -26.8201    0.0000 C   0  0  0  0  0  0  0  0  0  0  0  0
   -2.7819  -28.8816    0.0000 C   0  0  0  0  0  0  0  0  0  0  0  0
   44.3907  -28.8816    0.0000 C   0  0  0  0  0  0  0  0  0  0  0  0
    6.5093  -26.8201    0.0000 O   0  0  0  0  0  0  0  0  0  0  0  0
   45.1070  -26.8201    0.0000 O   0  0  0  0  0  0  0  0  0  0  0  0
   29.3855  -26.8201    0.0000 C   0  0  0  0  0  0  0  0  0  0  0  0
    1.5035  -28.8816    0.0000 C   0  0  2  0  0  0  0  0  0  0  0  0
   40.8174  -30.1227    0.0000 O   0  0  0  0  0  0  0  0  0  0  0  0
   32.2424  -30.1227    0.0000 O   0  0  0  0  0  0  0  0  0  0  0  0
    8.6540  -28.8816    0.0000 O   0  0  0  0  0  0  0  0  0  0  0  0
   -4.2146  -28.8816    0.0000 O   0  0  0  0  0  0  0  0  0  0  0  0
   26.5202  -25.1709    0.0000 O   0  0  0  0  0  0  0  0  0  0  0  0
   25.0919  -26.8201    0.0000 C   0  0  0  0  0  0  0  0  0  0  0  0
    7.9419  -27.6447    0.0000 C   0  0  0  0  0  0  0  0  0  0  0  0
   35.8157  -28.8816    0.0000 C   0  0  0  0  0  0  0  0  0  0  0  0
   14.3721  -28.8816    0.0000 C   0  0  0  0  0  0  0  0  0  0  0  0
   18.6616  -28.8816    0.0000 C   0  0  2  0  0  0  0  0  0  0  0  0
   41.5338  -28.8816    0.0000 N   0  0  0  0  0  0  0  0  0  0  0  0
   25.8081  -26.4078    0.0000 C   0  0  0  0  0  0  0  0  0  0  0  0
    0.0750  -26.4078    0.0000 C   0  0  0  0  0  0  0  0  0  0  0  0
   45.8232  -28.0612    0.0000 O   0  0  0  0  0  0  0  0  0  0  0  0
    1.5035  -25.5791    0.0000 C   0  0  0  0  0  0  0  0  0  0  0  0
   32.9588  -28.8816    0.0000 O   0  0  0  0  0  0  0  0  0  0  0  0
   25.0919  -25.1709    0.0000 O   0  0  0  0  0  0  0  0  0  0  0  0
   -2.0698  -29.2981    0.0000 C   0  0  0  0  0  0  0  0  0  0  0  0
   45.1070  -29.2981    0.0000 C   0  0  0  0  0  0  0  0  0  0  0  0
   42.9622  -26.4078    0.0000 C   0  0  0  0  0  0  0  0  0  0  0  0
   27.2366  -28.8816    0.0000 C   0  0  0  0  0  0  0  0  0  0  0  0
   20.8065  -26.8201    0.0000 C   0  0  0  0  0  0  0  0  0  0  0  0
    5.7971  -28.8816    0.0000 C   0  0  0  0  0  0  0  0  0  0  0  0
   -5.6430  -28.0612    0.0000 N   0  0  0  0  0  0  0  0  0  0  0  0
    0.7913  -26.8201    0.0000 C   0  0  0  0  0  0  0  0  0  0  0  0
    0.0750  -25.5791    0.0000 C   0  0  0  0  0  0  0  0  0  0  0  0
   13.6600  -24.3463    0.0000 N   0  0  0  0  0  0  0  0  0  0  0  0
   11.5151  -31.3596    0.0000 N   0  0  0  0  0  0  0  0  0  0  0  0
   39.3889  -24.3463    0.0000 N   0  0  0  0  0  0  0  0  0  0  0  0
   35.1035  -24.3463    0.0000 N   0  0  0  0  0  0  0  0  0  0  0  0
   24.3797  -31.3596    0.0000 N   0  0  0  0  0  0  0  0  0  0  0  0
   17.9454  -24.3463    0.0000 N   0  0  0  0  0  0  0  0  0  0  0  0
    1.5035  -26.4078    0.0000 C   0  0  0  0  0  0  0  0  0  0  0  0
    0.7913  -25.1709    0.0000 C   0  0  0  0  0  0  0  0  0  0  0  0
    2.2197  -29.2981    0.0000 O   0  0  0  0  0  0  0  0  0  0  0  0
    2.2197  -25.1709    0.0000 O   0  0  0  0  0  0  0  0  0  0  0  0
   -4.9268  -27.6447    0.0000 C   0  0  0  0  0  0  0  0  0  0  0  0
    6.5093  -29.2981    0.0000 O   0  0  0  0  0  0  0  0  0  0  0  0
   27.9529  -29.2981    0.0000 O   0  0  0  0  0  0  0  0  0  0  0  0
   21.5186  -26.4078    0.0000 O   0  0  0  0  0  0  0  0  0  0  0  0
   30.0935  -26.4078    0.0000 C   0  0  0  0  0  0  0  0  0  0  0  0
   16.5169  -26.8201    0.0000 C   0  0  0  0  0  0  0  0  0  0  0  0
   22.9470  -28.8816    0.0000 C   0  0  0  0  0  0  0  0  0  0  0  0
   37.9605  -26.8201    0.0000 C   0  0  0  0  0  0  0  0  0  0  0  0
   12.2273  -26.8201    0.0000 C   0  0  0  0  0  0  0  0  0  0  0  0
   33.6709  -26.8201    0.0000 C   0  0  0  0  0  0  0  0  0  0  0  0
   10.0867  -28.8816    0.0000 C   0  0  0  0  0  0  0  0  0  0  0  0
    3.6482  -26.8201    0.0000 C   0  0  0  0  0  0  0  0  0  0  0  0
   24.3797  -30.5392    0.0000 C   0  0  0  0  0  0  0  0  0  0  0  0
   39.3889  -25.1709    0.0000 C   0  0  0  0  0  0  0  0  0  0  0  0
   17.9454  -25.1709    0.0000 C   0  0  0  0  0  0  0  0  0  0  0  0
   13.6600  -25.1709    0.0000 C   0  0  0  0  0  0  0  0  0  0  0  0
   11.5151  -30.5392    0.0000 C   0  0  0  0  0  0  0  0  0  0  0  0
   35.1035  -25.1709    0.0000 C   0  0  0  0  0  0  0  0  0  0  0  0
   17.9454  -29.2981    0.0000 C   0  0  0  0  0  0  0  0  0  0  0  0
    0.7913  -29.2981    0.0000 C   0  0  0  0  0  0  0  0  0  0  0  0
   13.6600  -29.2981    0.0000 C   0  0  0  0  0  0  0  0  0  0  0  0
   15.0884  -29.2981    0.0000 C   0  0  0  0  0  0  0  0  0  0  0  0
   36.5320  -29.2981    0.0000 C   0  0  0  0  0  0  0  0  0  0  0  0
   35.1035  -29.2981    0.0000 C   0  0  0  0  0  0  0  0  0  0  0  0
   19.3738  -29.2981    0.0000 C   0  0  0  0  0  0  0  0  0  0  0  0
   43.6785  -26.8201    0.0000 C   0  0  0  0  0  0  0  0  0  0  0  0
   -2.0698  -30.1185    0.0000 C   0  0  0  0  0  0  0  0  0  0  0  0
   45.1070  -30.1185    0.0000 C   0  0  0  0  0  0  0  0  0  0  0  0
   42.9622  -25.5791    0.0000 C   0  0  0  0  0  0  0  0  0  0  0  0
   45.8232  -28.8858    0.0000 C   0  0  0  0  0  0  0  0  0  0  0  0
   -1.3535  -28.8858    0.0000 C   0  0  0  0  0  0  0  0  0  0  0  0
   12.9436  -26.4078    0.0000 C   0  0  0  0  0  0  0  0  0  0  0  0
   23.6634  -29.2981    0.0000 C   0  0  0  0  0  0  0  0  0  0  0  0
   38.6768  -26.4078    0.0000 C   0  0  0  0  0  0  0  0  0  0  0  0
   34.3873  -26.4078    0.0000 C   0  0  0  0  0  0  0  0  0  0  0  0
   17.2332  -26.4078    0.0000 C   0  0  0  0  0  0  0  0  0  0  0  0
   10.7989  -29.2981    0.0000 C   0  0  0  0  0  0  0  0  0  0  0  0
   12.9436  -25.5832    0.0000 C   0  0  0  0  0  0  0  0  0  0  0  0
   34.3873  -25.5832    0.0000 C   0  0  0  0  0  0  0  0  0  0  0  0
   38.6768  -25.5832    0.0000 C   0  0  0  0  0  0  0  0  0  0  0  0
   10.7989  -30.1227    0.0000 C   0  0  0  0  0  0  0  0  0  0  0  0
   17.2332  -25.5832    0.0000 C   0  0  0  0  0  0  0  0  0  0  0  0
   23.6634  -30.1227    0.0000 C   0  0  0  0  0  0  0  0  0  0  0  0
   30.0935  -25.5832    0.0000 C   0  0  0  0  0  0  0  0  0  0  0  0
   30.8140  -26.8201    0.0000 C   0  0  0  0  0  0  0  0  0  0  0  0
   17.9454  -30.1227    0.0000 C   0  0  0  0  0  0  0  0  0  0  0  0
   -0.6372  -29.2981    0.0000 C   0  0  0  0  0  0  0  0  0  0  0  0
   44.3948  -26.4078    0.0000 C   0  0  0  0  0  0  0  0  0  0  0  0
   43.6785  -25.1709    0.0000 C   0  0  0  0  0  0  0  0  0  0  0  0
   46.5354  -29.2981    0.0000 C   0  0  0  0  0  0  0  0  0  0  0  0
   45.8232  -30.5350    0.0000 C   0  0  0  0  0  0  0  0  0  0  0  0
   -1.3535  -30.5350    0.0000 C   0  0  0  0  0  0  0  0  0  0  0  0
   46.5354  -30.1185    0.0000 C   0  0  0  0  0  0  0  0  0  0  0  0
   -0.6372  -30.1185    0.0000 C   0  0  0  0  0  0  0  0  0  0  0  0
   44.3948  -25.5791    0.0000 C   0  0  0  0  0  0  0  0  0  0  0  0
  1  2  1  0  0  0  0
  1  3  1  6  0  0  0
 40  4  1  0  0  0  0
 38  5  1  0  0  0  0
 39  6  1  0  0  0  0
  7 14  1  0  0  0  0
  8 13  1  0  0  0  0
  9 15  1  0  0  0  0
 10  3  1  0  0  0  0
 30 11  1  0  0  0  0
 29 12  1  0  0  0  0
 68 13  1  0  0  0  0
 69 14  1  0  0  0  0
 66 15  1  0  0  0  0
 45 16  1  0  0  0  0
 44 17  1  0  0  0  0
 55 18  1  0  0  0  0
 54 19  1  0  0  0  0
 20 37  1  0  0  0  0
 21  4  1  0  0  0  0
 61 22  1  0  0  0  0
 67 23  1  0  0  0  0
 70 24  1  0  0  0  0
 71 25  1  0  0  0  0
 73 26  1  0  0  0  0
 27 22  1  0  0  0  0
 28 23  1  0  0  0  0
 29 21  1  1  0  0  0
 30 27  1  6  0  0  0
 31 18  1  0  0  0  0
 32 11  1  0  0  0  0
 33 24  1  0  0  0  0
 34  2  1  0  0  0  0
 35 28  1  6  0  0  0
 36 16  1  0  0  0  0
 53 37  1  1  0  0  0
 38  7  1  6  0  0  0
 39  8  1  6  0  0  0
 40  9  1  6  0  0  0
 41 19  1  0  0  0  0
 42  5  1  0  0  0  0
 43  6  1  0  0  0  0
 44 31  1  6  0  0  0
 45 33  1  6  0  0  0
 46 12  1  0  0  0  0
 47 25  1  0  0  0  0
 48 17  1  0  0  0  0
 49 26  1  0  0  0  0
 35 50  1  0  0  0  0
 45 51  1  0  0  0  0
 44 52  1  0  0  0  0
 53 10  1  0  0  0  0
 54 36  1  1  0  0  0
 55 32  1  1  0  0  0
 56 20  1  0  0  0  0
 57 41  1  6  0  0  0
 57 58  1  0  0  0  0
 56 59  1  6  0  0  0
 60 64  1  0  0  0  0
 61 47  1  1  0  0  0
 62 51  1  0  0  0  0
 63 52  1  0  0  0  0
 64109  1  0  0  0  0
 65 50  1  0  0  0  0
 66 42  1  1  0  0  0
 67 34  1  0  0  0  0
 68 48  1  1  0  0  0
 69 49  1  1  0  0  0
 70 43  1  1  0  0  0
 71 46  1  6  0  0  0
 72 59  1  0  0  0  0
 73 60  1  6  0  0  0
 74114  1  0  0  0  0
 75  2  2  0  0  0  0
 76  4  2  0  0  0  0
 77  5  2  0  0  0  0
 78  6  2  0  0  0  0
 79 12  2  0  0  0  0
 80 11  2  0  0  0  0
 81 10  2  0  0  0  0
 82 15  2  0  0  0  0
 83 13  2  0  0  0  0
 84 14  2  0  0  0  0
 85 19  2  0  0  0  0
 86 17  2  0  0  0  0
 87 18  2  0  0  0  0
 88 16  2  0  0  0  0
 89 20  2  0  0  0  0
 90 24  2  0  0  0  0
 91 25  2  0  0  0  0
 92 22  2  0  0  0  0
 93 26  2  0  0  0  0
 94 23  2  0  0  0  0
 53 95  1  0  0  0  0
 54 96  1  0  0  0  0
 56 97  1  0  0  0  0
 57 98  1  0  0  0  0
 99 50  2  0  0  0  0
100 58  2  0  0  0  0
 55101  1  0  0  0  0
  1102  1  0  0  0  0
103 62  2  0  0  0  0
104 63  2  0  0  0  0
105 64  2  0  0  0  0
106 72  2  0  0  0  0
107 74  2  0  0  0  0
 61108  1  0  0  0  0
109 65  1  0  0  0  0
 39110  1  0  0  0  0
 38111  1  0  0  0  0
 40112  1  0  0  0  0
113 62  1  0  0  0  0
114108  1  0  0  0  0
115 95  1  0  0  0  0
116 58  1  0  0  0  0
117135  2  0  0  0  0
118 63  1  0  0  0  0
119 74  1  0  0  0  0
120 97  1  0  0  0  0
121 98  1  0  0  0  0
122 96  1  0  0  0  0
 30123  1  0  0  0  0
 29124  1  0  0  0  0
 35125  1  0  0  0  0
126139  1  0  0  0  0
127115  2  0  0  0  0
128115  1  0  0  0  0
129154  1  0  0  0  0
130155  1  0  0  0  0
131152  1  0  0  0  0
132156  1  0  0  0  0
133151  1  0  0  0  0
134153  1  0  0  0  0
135127  1  0  0  0  0
136128  2  0  0  0  0
102137  1  6  0  0  0
138117  1  0  0  0  0
139 72  1  0  0  0  0
140125  1  0  0  0  0
141123  1  0  0  0  0
142124  1  0  0  0  0
143101  1  0  0  0  0
 66144  1  0  0  0  0
 71145  1  0  0  0  0
 70146  1  0  0  0  0
 69147  1  0  0  0  0
 68148  1  0  0  0  0
 73149  1  0  0  0  0
 67150  1  1  0  0  0
151181  1  0  0  0  0
152178  1  0  0  0  0
153180  1  0  0  0  0
154176  1  0  0  0  0
155179  1  0  0  0  0
156177  1  0  0  0  0
112157  1  0  0  0  0
102158  1  0  0  0  0
159111  1  0  0  0  0
160111  1  0  0  0  0
161110  1  0  0  0  0
162110  1  0  0  0  0
112163  1  1  0  0  0
164122  2  0  0  0  0
165120  2  0  0  0  0
166121  2  0  0  0  0
167122  1  0  0  0  0
168121  1  0  0  0  0
169120  1  0  0  0  0
170147  1  0  0  0  0
171145  1  0  0  0  0
172146  1  0  0  0  0
173148  1  0  0  0  0
174144  1  0  0  0  0
175149  1  0  0  0  0
176170  1  0  0  0  0
177173  1  0  0  0  0
178172  1  0  0  0  0
179175  1  0  0  0  0
180174  1  0  0  0  0
181171  1  0  0  0  0
182143  1  0  0  0  0
183143  1  0  0  0  0
184157  1  0  0  0  0
185169  2  0  0  0  0
186164  1  0  0  0  0
187167  2  0  0  0  0
188168  2  0  0  0  0
189166  1  0  0  0  0
190165  1  0  0  0  0
191188  1  0  0  0  0
192185  1  0  0  0  0
193186  2  0  0  0  0
136117  1  0  0  0  0
190192  2  0  0  0  0
187193  1  0  0  0  0
189191  2  0  0  0  0
M  END
> <From>
www.bindingDB.org

> <BindingDB Reactant_set_id>
51016969

> <Ligand InChI>
InChI=1S/C127H201N31O35/c1-11-72(8)104(157-114(179)85(44-26-32-56-133)145-124(189)103(71(6)7)155-112(177)83(42-24-30-54-131)140-108(173)80(39-21-27-51-128)138-99(166)65-136-107(172)94(66-159)152-106(171)73(9)137-126(191)105(74(10)162)158-120(185)90(60-78-45-47-79(163)48-46-78)148-116(181)88(139-98(165)64-134)58-75-33-15-12-16-34-75)125(190)154-96(68-161)121(186)142-81(40-22-28-52-129)109(174)143-86(49-50-100(167)168)111(176)153-95(67-160)122(187)146-87(57-69(2)3)115(180)150-92(63-101(169)170)119(184)141-84(43-25-31-55-132)113(178)156-102(70(4)5)123(188)144-82(41-23-29-53-130)110(175)149-91(62-97(135)164)118(183)147-89(59-76-35-17-13-18-36-76)117(182)151-93(127(192)193)61-77-37-19-14-20-38-77/h12-20,33-38,45-48,69-74,80-96,102-105,159-163H,11,21-32,39-44,49-68,128-134H2,1-10H3,(H2,135,164)(H,136,172)(H,137,191)(H,138,166)(H,139,165)(H,140,173)(H,141,184)(H,142,186)(H,143,174)(H,144,188)(H,145,189)(H,146,187)(H,147,183)(H,148,181)(H,149,175)(H,150,180)(H,151,182)(H,152,171)(H,153,176)(H,154,190)(H,155,177)(H,156,178)(H,157,179)(H,158,185)(H,167,168)(H,169,170)(H,192,193)/t72-,73-,74+,80-,81-,82-,83-,84-,85-,86-,87-,88-,89-,90-,91-,92-,93-,94-,95-,96-,102-,103-,104-,105-/m0/s1

> <Ligand InChI Key>
HHEJEJNXLAWPSZ-XNZAUPJISA-N

> <BindingDB MonomerID>
50416570

> <BindingDB Ligand Name>
CHEMBL1215819

> <Target Name>
DNA repair protein RAD51 homolog 1

> <Target Source Organism According to Curator or DataSource>
Homo sapiens

> <Ki (nM)>
 750

> <IC50 (nM)>


> <Kd (nM)>


> <EC50 (nM)>


> <kon (M-1-s-1)>


> <koff (s-1)>


> <pH>


> <Temp C>


> <Curation/DataSource>
ChEMBL

> <Article DOI>
10.1021/jm1002974

> <BindingDB Entry DOI>
10.7270/Q2NG4RV5

> <PMID>
20684611

> <PubChem AID>


> <Patent Number>


> <Authors>
Nomme, J; Renodon-Corniere, A; Asanomi, Y; Sakaguchi, K; Stasiak, AZ; Stasiak, A; Norden, B; Tran, V; Takahashi, M

> <Date of publication>
8/5/2010

> <Date in BindingDB>
5/22/2013

> <Institution>
Centre National de la Recherche Scientifique & Universite de Nantes

> <Link to Ligand in BindingDB>
http://www.bindingdb.org/bind/chemsearch/marvin/MolStructure.jsp?monomerid=50416570

> <Link to Ligand-Target Pair in BindingDB>
http://www.bindingdb.org/jsp/dbsearch/PrimarySearch_ki.jsp?energyterm=kJ/mole&tag=pol&polymerid=4676&target=DNA+repair+protein+RAD51+homolog+1&column=ki&startPg=0&Increment=50&submit=Search

> <Link to Ligand-Target Pair in BindingDB>
http://www.bindingdb.org/jsp/dbsearch/PrimarySearch_ki.jsp?energyterm=kJ/mole&tag=r21&monomerid=50416570&enzyme=DNA+repair+protein+RAD51+homolog+1&column=ki&startPg=0&Increment=50&submit=Search

> <Ligand HET ID in PDB>


> <PDB ID(s) for Ligand-Target Complex>


> <PubChem CID of Ligand>
46899807

> <PubChem SID of Ligand>
163365594

> <ChEBI ID of Ligand>


> <ChEMBL ID of Ligand>
CHEMBL1215819

> <DrugBank ID of Ligand>


> <IUPHAR_GRAC ID of Ligand>


> <KEGG ID of Ligand>


> <ZINC ID of Ligand>


> <Number of Protein Chains in Target (bigger than 1 implies a multichain complex)>
1

> <BindingDB Target Chain Sequence>
MAMQMQLEANADTSVEEESFGPQPISRLEQCGINANDVKKLEEAGFHTVEAVAYAPKKELINIKGISEAKADKILAEAAKLVPMGFTTATEFHQRRSEIIQITTGSKELDKLLQGGIETGSITEMFGEFRTGKTQICHTLAVTCQLPIDRGGGEGKAMYIDTEGTFRPERLLAVAERYGLSGSDVLDNVAYARAFNTDHQTQLLYQASAMMVESRYALLIVDSATALYRTDYSGRGELSARQMHLARFLRMLLRLADEFGVAVVITNQVVAQVDGAAMFAADPKKPIGGNIIAHASTTRLYLRKGRGETRICKIYDSPCLPEAEAMFAINADGVGDAKD

> <PDB ID(s) of Target Chain>
1N0W,5JZC,5NP7,5NWL,8BQ2,8BR2,8BSC

> <UniProt (SwissProt) Recommended Name of Target Chain>
DNA repair protein RAD51 homolog 1

> <UniProt (SwissProt) Entry Name of Target Chain>
RAD51_HUMAN

> <UniProt (SwissProt) Primary ID of Target Chain>
Q06609

> <UniProt (SwissProt) Secondary ID(s) of Target Chain>
B0FXP0 B2R8T6 Q6FHX9 Q6ZNA8 Q9BV60

> <UniProt (SwissProt) Alternative ID(s) of Target Chain>


> <UniProt (TrEMBL) Submitted Name of Target Chain>


> <UniProt (TrEMBL) Entry Name of Target Chain>


> <UniProt (TrEMBL) Primary ID of Target Chain>


> <UniProt (TrEMBL) Secondary ID(s) of Target Chain>


> <UniProt (TrEMBL) Alternative ID(s) of Target Chain>


$$$$

  Mrv0541 11241415252D          

188190  0  0  0  0            999 V2000
    1.3667  -10.3417    0.0000 C   0  0  1  0  0  0  0  0  0  0  0  0
    2.0958   -9.9250    0.0000 C   0  0  0  0  0  0  0  0  0  0  0  0
    0.6625   -9.9333    0.0000 N   0  0  0  0  0  0  0  0  0  0  0  0
   19.3125   -9.8000    0.0000 C   0  0  0  0  0  0  0  0  0  0  0  0
   15.0083   -9.8292    0.0000 C   0  0  0  0  0  0  0  0  0  0  0  0
   36.5333   -9.6750    0.0000 C   0  0  0  0  0  0  0  0  0  0  0  0
   13.5708   -9.8417    0.0000 N   0  0  0  0  0  0  0  0  0  0  0  0
   35.0958   -9.6833    0.0000 N   0  0  0  0  0  0  0  0  0  0  0  0
   17.8792   -9.8083    0.0000 N   0  0  0  0  0  0  0  0  0  0  0  0
   -0.0667  -10.3542    0.0000 C   0  0  0  0  0  0  0  0  0  0  0  0
   27.9208   -9.7375    0.0000 C   0  0  0  0  0  0  0  0  0  0  0  0
   21.4542  -10.1958    0.0000 C   0  0  0  0  0  0  0  0  0  0  0  0
   34.3708  -10.1042    0.0000 C   0  0  0  0  0  0  0  0  0  0  0  0
   12.8458  -10.2583    0.0000 C   0  0  0  0  0  0  0  0  0  0  0  0
   17.1542  -10.2292    0.0000 C   0  0  0  0  0  0  0  0  0  0  0  0
   40.8333   -9.6417    0.0000 C   0  0  0  0  0  0  0  0  0  0  0  0
   32.2250   -9.7042    0.0000 C   0  0  0  0  0  0  0  0  0  0  0  0
   30.0625  -10.1333    0.0000 C   0  0  0  0  0  0  0  0  0  0  0  0
   42.9750  -10.0417    0.0000 C   0  0  0  0  0  0  0  0  0  0  0  0
   -2.2125   -9.9542    0.0000 C   0  0  0  0  0  0  0  0  0  0  0  0
   20.0208  -10.2083    0.0000 N   0  0  0  0  0  0  0  0  0  0  0  0
   25.7625  -10.1667    0.0000 C   0  0  0  0  0  0  0  0  0  0  0  0
    4.2375  -10.3208    0.0000 C   0  0  0  0  0  0  0  0  0  0  0  0
   38.6750  -10.0708    0.0000 C   0  0  0  0  0  0  0  0  0  0  0  0
   23.6167   -9.7667    0.0000 C   0  0  0  0  0  0  0  0  0  0  0  0
   10.7042   -9.8625    0.0000 C   0  0  0  0  0  0  0  0  0  0  0  0
   26.4875   -9.7458    0.0000 N   0  0  0  0  0  0  0  0  0  0  0  0
    4.9625   -9.9042    0.0000 N   0  0  0  0  0  0  0  0  0  0  0  0
   20.7458   -9.7875    0.0000 C   0  0  1  0  0  0  0  0  0  0  0  0
   27.1958  -10.1542    0.0000 C   0  0  1  0  0  0  0  0  0  0  0  0
   30.7917   -9.7167    0.0000 N   0  0  0  0  0  0  0  0  0  0  0  0
   28.6292  -10.1458    0.0000 N   0  0  0  0  0  0  0  0  0  0  0  0
   39.4000   -9.6542    0.0000 N   0  0  0  0  0  0  0  0  0  0  0  0
   -1.5000  -10.3625    0.0000 N   0  0  0  0  0  0  0  0  0  0  0  0
    2.8042  -10.3333    0.0000 N   0  0  0  0  0  0  0  0  0  0  0  0
    5.6708  -10.3125    0.0000 C   0  0  2  0  0  0  0  0  0  0  0  0
   41.5417  -10.0500    0.0000 N   0  0  0  0  0  0  0  0  0  0  0  0
   14.2792  -10.2500    0.0000 C   0  0  1  0  0  0  0  0  0  0  0  0
   35.8042  -10.0917    0.0000 C   0  0  1  0  0  0  0  0  0  0  0  0
   18.5875  -10.2167    0.0000 C   0  0  1  0  0  0  0  0  0  0  0  0
   43.7083   -9.6208    0.0000 N   0  0  0  0  0  0  0  0  0  0  0  0
   15.7125  -10.2375    0.0000 N   0  0  0  0  0  0  0  0  0  0  0  0
   37.2417  -10.0833    0.0000 N   0  0  0  0  0  0  0  0  0  0  0  0
   31.5000  -10.1250    0.0000 C   0  0  1  0  0  0  0  0  0  0  0  0
   40.1083  -10.0625    0.0000 C   0  0  1  0  0  0  0  0  0  0  0  0
   22.1833   -9.7792    0.0000 N   0  0  0  0  0  0  0  0  0  0  0  0
   24.3292  -10.1750    0.0000 N   0  0  0  0  0  0  0  0  0  0  0  0
   32.9333  -10.1125    0.0000 N   0  0  0  0  0  0  0  0  0  0  0  0
   11.4125  -10.2708    0.0000 N   0  0  0  0  0  0  0  0  0  0  0  0
    6.3958   -9.8917    0.0000 C   0  0  0  0  0  0  0  0  0  0  0  0
   -0.7750   -9.9458    0.0000 C   0  0  1  0  0  0  0  0  0  0  0  0
   40.1083  -10.8792    0.0000 C   0  0  0  0  0  0  0  0  0  0  0  0
   31.5000  -10.9417    0.0000 C   0  0  0  0  0  0  0  0  0  0  0  0
   29.3583   -9.7250    0.0000 C   0  0  1  0  0  0  0  0  0  0  0  0
   42.2667   -9.6333    0.0000 C   0  0  1  0  0  0  0  0  0  0  0  0
    1.2000   -8.2833    0.0000 N   0  0  0  0  0  0  0  0  0  0  0  0
   -2.9333  -10.3667    0.0000 C   0  0  1  0  0  0  0  0  0  0  0  0
   44.4167  -10.0292    0.0000 C   0  0  2  0  0  0  0  0  0  0  0  0
   45.1417   -9.6125    0.0000 C   0  0  0  0  0  0  0  0  0  0  0  0
   -3.6458   -9.9583    0.0000 N   0  0  0  0  0  0  0  0  0  0  0  0
   -0.0667   -8.6958    0.0000 C   0  0  0  0  0  0  0  0  0  0  0  0
    9.2708   -9.8708    0.0000 N   0  0  0  0  0  0  0  0  0  0  0  0
   25.0542   -9.7583    0.0000 C   0  0  1  0  0  0  0  0  0  0  0  0
   -0.7750   -9.1083    0.0000 C   0  0  0  0  0  0  0  0  0  0  0  0
   40.8333  -11.3000    0.0000 C   0  0  0  0  0  0  0  0  0  0  0  0
   -0.0667   -7.8583    0.0000 N   0  0  0  0  0  0  0  0  0  0  0  0
   32.2250  -11.3583    0.0000 C   0  0  0  0  0  0  0  0  0  0  0  0
    8.5417  -10.2917    0.0000 C   0  0  0  0  0  0  0  0  0  0  0  0
    7.1083  -10.3000    0.0000 N   0  0  0  0  0  0  0  0  0  0  0  0
   16.4458   -9.8208    0.0000 C   0  0  1  0  0  0  0  0  0  0  0  0
    3.5292   -9.9125    0.0000 C   0  0  1  0  0  0  0  0  0  0  0  0
   33.6583   -9.6958    0.0000 C   0  0  1  0  0  0  0  0  0  0  0  0
   12.1375   -9.8500    0.0000 C   0  0  1  0  0  0  0  0  0  0  0  0
   37.9667   -9.6625    0.0000 C   0  0  1  0  0  0  0  0  0  0  0  0
   22.8875  -10.1875    0.0000 C   0  0  1  0  0  0  0  0  0  0  0  0
    0.7167   -7.6083    0.0000 C   0  0  0  0  0  0  0  0  0  0  0  0
   -4.3667  -10.3708    0.0000 C   0  0  0  0  0  0  0  0  0  0  0  0
    9.9792  -10.2792    0.0000 C   0  0  1  0  0  0  0  0  0  0  0  0
   25.7625   -7.6667    0.0000 C   0  0  0  0  0  0  0  0  0  0  0  0
    0.7125   -8.9458    0.0000 C   0  0  0  0  0  0  0  0  0  0  0  0
    2.0958   -9.0875    0.0000 O   0  0  0  0  0  0  0  0  0  0  0  0
   19.3125   -8.9583    0.0000 O   0  0  0  0  0  0  0  0  0  0  0  0
   15.0083   -8.9917    0.0000 O   0  0  0  0  0  0  0  0  0  0  0  0
   36.5333   -8.8333    0.0000 O   0  0  0  0  0  0  0  0  0  0  0  0
   21.4542  -11.0125    0.0000 O   0  0  0  0  0  0  0  0  0  0  0  0
   27.9208   -8.9000    0.0000 O   0  0  0  0  0  0  0  0  0  0  0  0
   -0.0667  -11.1708    0.0000 O   0  0  0  0  0  0  0  0  0  0  0  0
   17.1542  -11.0458    0.0000 O   0  0  0  0  0  0  0  0  0  0  0  0
   34.3708  -10.9208    0.0000 O   0  0  0  0  0  0  0  0  0  0  0  0
   12.8458  -11.0750    0.0000 O   0  0  0  0  0  0  0  0  0  0  0  0
   42.9750  -10.8583    0.0000 O   0  0  0  0  0  0  0  0  0  0  0  0
   32.2250   -8.8667    0.0000 O   0  0  0  0  0  0  0  0  0  0  0  0
   30.0625  -10.9500    0.0000 O   0  0  0  0  0  0  0  0  0  0  0  0
   40.8333   -8.8042    0.0000 O   0  0  0  0  0  0  0  0  0  0  0  0
   -2.2125   -9.1167    0.0000 O   0  0  0  0  0  0  0  0  0  0  0  0
   38.6750  -10.8875    0.0000 O   0  0  0  0  0  0  0  0  0  0  0  0
   23.6167   -8.9292    0.0000 O   0  0  0  0  0  0  0  0  0  0  0  0
   25.7625  -10.9833    0.0000 O   0  0  0  0  0  0  0  0  0  0  0  0
   10.7042   -9.0250    0.0000 O   0  0  0  0  0  0  0  0  0  0  0  0
    4.2375  -11.1375    0.0000 O   0  0  0  0  0  0  0  0  0  0  0  0
   -2.9333  -11.1917    0.0000 C   0  0  0  0  0  0  0  0  0  0  0  0
   44.4167  -10.8458    0.0000 C   0  0  0  0  0  0  0  0  0  0  0  0
    6.3958   -9.0542    0.0000 O   0  0  0  0  0  0  0  0  0  0  0  0
   45.1417   -8.7708    0.0000 O   0  0  0  0  0  0  0  0  0  0  0  0
   42.2667   -8.7958    0.0000 C   0  0  0  0  0  0  0  0  0  0  0  0
   29.3583   -8.8875    0.0000 C   0  0  0  0  0  0  0  0  0  0  0  0
    1.3667  -11.1583    0.0000 C   0  0  2  0  0  0  0  0  0  0  0  0
   40.8333  -12.1208    0.0000 O   0  0  0  0  0  0  0  0  0  0  0  0
   32.2250  -12.1792    0.0000 O   0  0  0  0  0  0  0  0  0  0  0  0
    8.5417  -11.1083    0.0000 O   0  0  0  0  0  0  0  0  0  0  0  0
   -4.3667  -11.2000    0.0000 O   0  0  0  0  0  0  0  0  0  0  0  0
   26.4708   -7.2583    0.0000 O   0  0  0  0  0  0  0  0  0  0  0  0
   25.0542   -8.9167    0.0000 C   0  0  0  0  0  0  0  0  0  0  0  0
    7.8375   -9.8833    0.0000 C   0  0  0  0  0  0  0  0  0  0  0  0
   35.8042  -10.9083    0.0000 C   0  0  0  0  0  0  0  0  0  0  0  0
   14.2792  -11.0667    0.0000 C   0  0  0  0  0  0  0  0  0  0  0  0
   18.5875  -11.0333    0.0000 C   0  0  2  0  0  0  0  0  0  0  0  0
   41.5625  -10.8792    0.0000 N   0  0  0  0  0  0  0  0  0  0  0  0
   25.7625   -8.5083    0.0000 C   0  0  0  0  0  0  0  0  0  0  0  0
   45.8500  -10.0208    0.0000 O   0  0  0  0  0  0  0  0  0  0  0  0
   32.9500  -10.9417    0.0000 O   0  0  0  0  0  0  0  0  0  0  0  0
   25.0375   -7.2500    0.0000 O   0  0  0  0  0  0  0  0  0  0  0  0
   45.1417  -11.2708    0.0000 C   0  0  0  0  0  0  0  0  0  0  0  0
   -2.2083  -11.6083    0.0000 C   0  0  0  0  0  0  0  0  0  0  0  0
   20.7458   -8.9500    0.0000 C   0  0  0  0  0  0  0  0  0  0  0  0
   27.1958  -10.9708    0.0000 C   0  0  0  0  0  0  0  0  0  0  0  0
    5.6708  -11.1292    0.0000 C   0  0  0  0  0  0  0  0  0  0  0  0
   -5.8042  -10.3792    0.0000 N   0  0  0  0  0  0  0  0  0  0  0  0
   17.8625   -6.4833    0.0000 N   0  0  0  0  0  0  0  0  0  0  0  0
   13.5542   -6.5167    0.0000 N   0  0  0  0  0  0  0  0  0  0  0  0
   11.4292  -13.5750    0.0000 N   0  0  0  0  0  0  0  0  0  0  0  0
   39.3833   -6.3292    0.0000 N   0  0  0  0  0  0  0  0  0  0  0  0
   35.0792   -6.3583    0.0000 N   0  0  0  0  0  0  0  0  0  0  0  0
   24.3417  -13.4792    0.0000 N   0  0  0  0  0  0  0  0  0  0  0  0
    2.0958  -11.5792    0.0000 O   0  0  0  0  0  0  0  0  0  0  0  0
   -5.0833   -9.9583    0.0000 C   0  0  0  0  0  0  0  0  0  0  0  0
   21.4542   -8.5417    0.0000 O   0  0  0  0  0  0  0  0  0  0  0  0
    6.3958  -11.5500    0.0000 O   0  0  0  0  0  0  0  0  0  0  0  0
   27.9208  -11.3917    0.0000 O   0  0  0  0  0  0  0  0  0  0  0  0
   42.9750   -8.3875    0.0000 C   0  0  0  0  0  0  0  0  0  0  0  0
   30.0625   -8.4792    0.0000 C   0  0  0  0  0  0  0  0  0  0  0  0
   16.4458   -8.9833    0.0000 C   0  0  0  0  0  0  0  0  0  0  0  0
   22.8875  -11.0042    0.0000 C   0  0  0  0  0  0  0  0  0  0  0  0
   37.9667   -8.8250    0.0000 C   0  0  0  0  0  0  0  0  0  0  0  0
   12.1375   -9.0125    0.0000 C   0  0  0  0  0  0  0  0  0  0  0  0
   33.6583   -8.8583    0.0000 C   0  0  0  0  0  0  0  0  0  0  0  0
    9.9792  -11.0958    0.0000 C   0  0  0  0  0  0  0  0  0  0  0  0
    3.5292   -9.0750    0.0000 C   0  0  0  0  0  0  0  0  0  0  0  0
   24.3417  -12.6625    0.0000 C   0  0  0  0  0  0  0  0  0  0  0  0
   39.3833   -7.1667    0.0000 C   0  0  0  0  0  0  0  0  0  0  0  0
   17.8625   -7.3208    0.0000 C   0  0  0  0  0  0  0  0  0  0  0  0
   13.5542   -7.3542    0.0000 C   0  0  0  0  0  0  0  0  0  0  0  0
   11.4292  -12.7583    0.0000 C   0  0  0  0  0  0  0  0  0  0  0  0
   35.0792   -7.1958    0.0000 C   0  0  0  0  0  0  0  0  0  0  0  0
   17.8792  -11.4417    0.0000 C   0  0  0  0  0  0  0  0  0  0  0  0
    0.6625  -11.5667    0.0000 C   0  0  0  0  0  0  0  0  0  0  0  0
   13.5708  -11.4750    0.0000 C   0  0  0  0  0  0  0  0  0  0  0  0
   15.0083  -11.4833    0.0000 C   0  0  0  0  0  0  0  0  0  0  0  0
   36.5333  -11.3333    0.0000 C   0  0  0  0  0  0  0  0  0  0  0  0
   35.0958  -11.3208    0.0000 C   0  0  0  0  0  0  0  0  0  0  0  0
   19.3125  -11.4542    0.0000 C   0  0  0  0  0  0  0  0  0  0  0  0
   45.1500  -12.0833    0.0000 C   0  0  0  0  0  0  0  0  0  0  0  0
   -1.4875  -11.1833    0.0000 C   0  0  0  0  0  0  0  0  0  0  0  0
   45.8583  -10.8417    0.0000 C   0  0  0  0  0  0  0  0  0  0  0  0
   -2.1958  -12.4292    0.0000 C   0  0  0  0  0  0  0  0  0  0  0  0
   17.1542   -8.5750    0.0000 C   0  0  0  0  0  0  0  0  0  0  0  0
   10.7042  -11.5167    0.0000 C   0  0  0  0  0  0  0  0  0  0  0  0
   12.8458   -8.6042    0.0000 C   0  0  0  0  0  0  0  0  0  0  0  0
   23.6167  -11.4208    0.0000 C   0  0  0  0  0  0  0  0  0  0  0  0
   38.6750   -8.4167    0.0000 C   0  0  0  0  0  0  0  0  0  0  0  0
   34.3708   -8.4458    0.0000 C   0  0  0  0  0  0  0  0  0  0  0  0
   17.1542   -7.7375    0.0000 C   0  0  0  0  0  0  0  0  0  0  0  0
   23.6167  -12.2458    0.0000 C   0  0  0  0  0  0  0  0  0  0  0  0
   12.8458   -7.7625    0.0000 C   0  0  0  0  0  0  0  0  0  0  0  0
   34.3708   -7.6083    0.0000 C   0  0  0  0  0  0  0  0  0  0  0  0
   38.6750   -7.5792    0.0000 C   0  0  0  0  0  0  0  0  0  0  0  0
   10.7042  -12.3375    0.0000 C   0  0  0  0  0  0  0  0  0  0  0  0
   30.0625   -7.6417    0.0000 C   0  0  0  0  0  0  0  0  0  0  0  0
   42.9750   -7.5458    0.0000 C   0  0  0  0  0  0  0  0  0  0  0  0
   43.6875   -8.7958    0.0000 C   0  0  0  0  0  0  0  0  0  0  0  0
   30.7750   -8.8875    0.0000 C   0  0  0  0  0  0  0  0  0  0  0  0
   17.8792  -12.2875    0.0000 C   0  0  0  0  0  0  0  0  0  0  0  0
   -0.7708  -11.5917    0.0000 C   0  0  0  0  0  0  0  0  0  0  0  0
   46.5792  -11.2500    0.0000 C   0  0  0  0  0  0  0  0  0  0  0  0
   45.8708  -12.4917    0.0000 C   0  0  0  0  0  0  0  0  0  0  0  0
   -1.4792  -12.8333    0.0000 C   0  0  0  0  0  0  0  0  0  0  0  0
   -0.7667  -12.4167    0.0000 C   0  0  0  0  0  0  0  0  0  0  0  0
   46.5833  -12.0750    0.0000 C   0  0  0  0  0  0  0  0  0  0  0  0
  1  2  1  0  0  0  0
  1  3  1  6  0  0  0
 40  4  1  0  0  0  0
 38  5  1  0  0  0  0
 39  6  1  0  0  0  0
  7 14  1  0  0  0  0
  8 13  1  0  0  0  0
  9 15  1  0  0  0  0
 10  3  1  0  0  0  0
 30 11  1  0  0  0  0
 29 12  1  0  0  0  0
 72 13  1  0  0  0  0
 73 14  1  0  0  0  0
 70 15  1  0  0  0  0
 45 16  1  0  0  0  0
 44 17  1  0  0  0  0
 54 18  1  0  0  0  0
 55 19  1  0  0  0  0
 20 34  1  0  0  0  0
 21  4  1  0  0  0  0
 63 22  1  0  0  0  0
 71 23  1  0  0  0  0
 74 24  1  0  0  0  0
 75 25  1  0  0  0  0
 78 26  1  0  0  0  0
 27 22  1  0  0  0  0
 28 23  1  0  0  0  0
 29 21  1  1  0  0  0
 30 27  1  6  0  0  0
 31 18  1  0  0  0  0
 32 11  1  0  0  0  0
 33 24  1  0  0  0  0
 51 34  1  1  0  0  0
 35  2  1  0  0  0  0
 36 28  1  6  0  0  0
 37 16  1  0  0  0  0
 38  7  1  6  0  0  0
 39  8  1  6  0  0  0
 40  9  1  6  0  0  0
 41 19  1  0  0  0  0
 42  5  1  0  0  0  0
 43  6  1  0  0  0  0
 44 31  1  6  0  0  0
 45 33  1  6  0  0  0
 46 12  1  0  0  0  0
 47 25  1  0  0  0  0
 48 17  1  0  0  0  0
 49 26  1  0  0  0  0
 36 50  1  0  0  0  0
 51 10  1  0  0  0  0
 45 52  1  0  0  0  0
 44 53  1  0  0  0  0
 54 32  1  1  0  0  0
 55 37  1  1  0  0  0
 56 80  1  0  0  0  0
 57 20  1  0  0  0  0
 58 41  1  6  0  0  0
 58 59  1  0  0  0  0
 57 60  1  6  0  0  0
 61 64  1  0  0  0  0
 62 68  1  0  0  0  0
 63 47  1  1  0  0  0
 51 64  1  0  0  0  0
 65 52  1  0  0  0  0
 66 61  1  0  0  0  0
 67 53  1  0  0  0  0
 68114  1  0  0  0  0
 69 50  1  0  0  0  0
 70 42  1  1  0  0  0
 71 35  1  0  0  0  0
 72 48  1  1  0  0  0
 73 49  1  1  0  0  0
 74 43  1  1  0  0  0
 75 46  1  6  0  0  0
 76 66  1  0  0  0  0
 77 60  1  0  0  0  0
 78 62  1  6  0  0  0
 79119  1  0  0  0  0
 80 61  2  0  0  0  0
 81  2  2  0  0  0  0
 82  4  2  0  0  0  0
 83  5  2  0  0  0  0
 84  6  2  0  0  0  0
 85 12  2  0  0  0  0
 86 11  2  0  0  0  0
 87 10  2  0  0  0  0
 88 15  2  0  0  0  0
 89 13  2  0  0  0  0
 90 14  2  0  0  0  0
 91 19  2  0  0  0  0
 92 17  2  0  0  0  0
 93 18  2  0  0  0  0
 94 16  2  0  0  0  0
 95 20  2  0  0  0  0
 96 24  2  0  0  0  0
 97 25  2  0  0  0  0
 98 22  2  0  0  0  0
 99 26  2  0  0  0  0
100 23  2  0  0  0  0
 57101  1  0  0  0  0
 58102  1  0  0  0  0
103 50  2  0  0  0  0
104 59  2  0  0  0  0
 55105  1  0  0  0  0
 54106  1  0  0  0  0
  1107  1  0  0  0  0
108 65  2  0  0  0  0
109 67  2  0  0  0  0
110 68  2  0  0  0  0
111 77  2  0  0  0  0
112 79  2  0  0  0  0
 63113  1  0  0  0  0
114 69  1  0  0  0  0
 39115  1  0  0  0  0
 38116  1  0  0  0  0
 40117  1  0  0  0  0
118 65  1  0  0  0  0
119113  1  0  0  0  0
120 59  1  0  0  0  0
121 67  1  0  0  0  0
122 79  1  0  0  0  0
123102  1  0  0  0  0
124101  1  0  0  0  0
 29125  1  0  0  0  0
 30126  1  0  0  0  0
 36127  1  0  0  0  0
128136  1  0  0  0  0
129151  1  0  0  0  0
130152  1  0  0  0  0
131153  1  0  0  0  0
132150  1  0  0  0  0
133154  1  0  0  0  0
134149  1  0  0  0  0
107135  1  6  0  0  0
136 77  1  0  0  0  0
137125  1  0  0  0  0
138127  1  0  0  0  0
139126  1  0  0  0  0
140105  1  0  0  0  0
141106  1  0  0  0  0
 70142  1  0  0  0  0
 75143  1  0  0  0  0
 74144  1  0  0  0  0
 73145  1  0  0  0  0
 72146  1  0  0  0  0
 78147  1  0  0  0  0
 71148  1  1  0  0  0
149173  1  0  0  0  0
150176  1  0  0  0  0
151172  1  0  0  0  0
152174  1  0  0  0  0
153177  1  0  0  0  0
154175  1  0  0  0  0
117155  1  0  0  0  0
107156  1  0  0  0  0
157116  1  0  0  0  0
158116  1  0  0  0  0
159115  1  0  0  0  0
160115  1  0  0  0  0
117161  1  1  0  0  0
162123  2  0  0  0  0
163124  2  0  0  0  0
164123  1  0  0  0  0
165124  1  0  0  0  0
166142  1  0  0  0  0
167147  1  0  0  0  0
168145  1  0  0  0  0
169143  1  0  0  0  0
170144  1  0  0  0  0
171146  1  0  0  0  0
172166  1  0  0  0  0
173169  1  0  0  0  0
174168  1  0  0  0  0
175171  1  0  0  0  0
176170  1  0  0  0  0
177167  1  0  0  0  0
178141  1  0  0  0  0
179140  1  0  0  0  0
180140  1  0  0  0  0
181141  1  0  0  0  0
182155  1  0  0  0  0
183163  1  0  0  0  0
184164  2  0  0  0  0
185162  1  0  0  0  0
186165  2  0  0  0  0
187183  2  0  0  0  0
188184  1  0  0  0  0
 56 76  2  0  0  0  0
186187  1  0  0  0  0
185188  2  0  0  0  0
M  END
> <From>
www.bindingDB.org

> <BindingDB Reactant_set_id>
51016967

> <Ligand InChI>
InChI=1S/C121H201N33O34/c1-13-68(10)98(153-108(174)79(41-25-31-49-127)141-118(184)97(67(8)9)151-106(172)77(39-23-29-47-125)136-102(168)74(36-20-26-44-122)134-93(161)59-131-101(167)88(60-155)148-100(166)69(11)133-120(186)99(70(12)158)154-114(180)84(54-73-58-130-63-132-73)144-111(177)83(135-92(160)57-128)52-71-32-16-14-17-33-71)119(185)150-90(62-157)115(181)138-75(37-21-27-45-123)103(169)139-80(42-43-94(162)163)105(171)149-89(61-156)116(182)143-81(50-64(2)3)109(175)146-86(56-95(164)165)113(179)137-78(40-24-30-48-126)107(173)152-96(66(6)7)117(183)140-76(38-22-28-46-124)104(170)145-85(55-91(129)159)112(178)142-82(51-65(4)5)110(176)147-87(121(187)188)53-72-34-18-15-19-35-72/h14-19,32-35,58,63-70,74-90,96-99,155-158H,13,20-31,36-57,59-62,122-128H2,1-12H3,(H2,129,159)(H,130,132)(H,131,167)(H,133,186)(H,134,161)(H,135,160)(H,136,168)(H,137,179)(H,138,181)(H,139,169)(H,140,183)(H,141,184)(H,142,178)(H,143,182)(H,144,177)(H,145,170)(H,146,175)(H,147,176)(H,148,166)(H,149,171)(H,150,185)(H,151,172)(H,152,173)(H,153,174)(H,154,180)(H,162,163)(H,164,165)(H,187,188)/t68-,69-,70+,74-,75-,76-,77-,78-,79-,80-,81-,82-,83-,84-,85-,86-,87-,88-,89-,90-,96-,97-,98-,99-/m0/s1

> <Ligand InChI Key>
DAPJDQIJUHWVCP-LNCJGMMUSA-N

> <BindingDB MonomerID>
50416568

> <BindingDB Ligand Name>
CHEMBL1215817

> <Target Name>
DNA repair protein RAD51 homolog 1

> <Target Source Organism According to Curator or DataSource>
Homo sapiens

> <Ki (nM)>
 1800

> <IC50 (nM)>


> <Kd (nM)>


> <EC50 (nM)>


> <kon (M-1-s-1)>


> <koff (s-1)>


> <pH>


> <Temp C>


> <Curation/DataSource>
ChEMBL

> <Article DOI>
10.1021/jm1002974

> <BindingDB Entry DOI>
10.7270/Q2NG4RV5

> <PMID>
20684611

> <PubChem AID>


> <Patent Number>


> <Authors>
Nomme, J; Renodon-Corniere, A; Asanomi, Y; Sakaguchi, K; Stasiak, AZ; Stasiak, A; Norden, B; Tran, V; Takahashi, M

> <Date of publication>
8/5/2010

> <Date in BindingDB>
5/22/2013

> <Institution>
Centre National de la Recherche Scientifique & Universite de Nantes

> <Link to Ligand in BindingDB>
http://www.bindingdb.org/bind/chemsearch/marvin/MolStructure.jsp?monomerid=50416568

> <Link to Ligand-Target Pair in BindingDB>
http://www.bindingdb.org/jsp/dbsearch/PrimarySearch_ki.jsp?energyterm=kJ/mole&tag=pol&polymerid=4676&target=DNA+repair+protein+RAD51+homolog+1&column=ki&startPg=0&Increment=50&submit=Search

> <Link to Ligand-Target Pair in BindingDB>
http://www.bindingdb.org/jsp/dbsearch/PrimarySearch_ki.jsp?energyterm=kJ/mole&tag=r21&monomerid=50416568&enzyme=DNA+repair+protein+RAD51+homolog+1&column=ki&startPg=0&Increment=50&submit=Search

> <Ligand HET ID in PDB>


> <PDB ID(s) for Ligand-Target Complex>


> <PubChem CID of Ligand>
49864245

> <PubChem SID of Ligand>
163365592

> <ChEBI ID of Ligand>


> <ChEMBL ID of Ligand>
CHEMBL1215817

> <DrugBank ID of Ligand>


> <IUPHAR_GRAC ID of Ligand>


> <KEGG ID of Ligand>


> <ZINC ID of Ligand>


> <Number of Protein Chains in Target (bigger than 1 implies a multichain complex)>
1

> <BindingDB Target Chain Sequence>
MAMQMQLEANADTSVEEESFGPQPISRLEQCGINANDVKKLEEAGFHTVEAVAYAPKKELINIKGISEAKADKILAEAAKLVPMGFTTATEFHQRRSEIIQITTGSKELDKLLQGGIETGSITEMFGEFRTGKTQICHTLAVTCQLPIDRGGGEGKAMYIDTEGTFRPERLLAVAERYGLSGSDVLDNVAYARAFNTDHQTQLLYQASAMMVESRYALLIVDSATALYRTDYSGRGELSARQMHLARFLRMLLRLADEFGVAVVITNQVVAQVDGAAMFAADPKKPIGGNIIAHASTTRLYLRKGRGETRICKIYDSPCLPEAEAMFAINADGVGDAKD

> <PDB ID(s) of Target Chain>
1N0W,5JZC,5NP7,5NWL,8BQ2,8BR2,8BSC

> <UniProt (SwissProt) Recommended Name of Target Chain>
DNA repair protein RAD51 homolog 1

> <UniProt (SwissProt) Entry Name of Target Chain>
RAD51_HUMAN

> <UniProt (SwissProt) Primary ID of Target Chain>
Q06609

> <UniProt (SwissProt) Secondary ID(s) of Target Chain>
B0FXP0 B2R8T6 Q6FHX9 Q6ZNA8 Q9BV60

> <UniProt (SwissProt) Alternative ID(s) of Target Chain>


> <UniProt (TrEMBL) Submitted Name of Target Chain>


> <UniProt (TrEMBL) Entry Name of Target Chain>


> <UniProt (TrEMBL) Primary ID of Target Chain>


> <UniProt (TrEMBL) Secondary ID(s) of Target Chain>


> <UniProt (TrEMBL) Alternative ID(s) of Target Chain>


$$$$

  Mrv0541 11241415252D          

190193  0  0  0  0            999 V2000
    1.2004  -18.8263    0.0000 C   0  0  1  0  0  0  0  0  0  0  0  0
    1.9298  -18.4096    0.0000 C   0  0  0  0  0  0  0  0  0  0  0  0
    0.4959  -18.4179    0.0000 N   0  0  0  0  0  0  0  0  0  0  0  0
   14.8336  -18.3137    0.0000 C   0  0  0  0  0  0  0  0  0  0  0  0
   19.1348  -18.2846    0.0000 C   0  0  0  0  0  0  0  0  0  0  0  0
   36.3399  -18.1636    0.0000 C   0  0  0  0  0  0  0  0  0  0  0  0
   13.3956  -18.3262    0.0000 N   0  0  0  0  0  0  0  0  0  0  0  0
   34.9020  -18.1720    0.0000 N   0  0  0  0  0  0  0  0  0  0  0  0
   17.7010  -18.2929    0.0000 N   0  0  0  0  0  0  0  0  0  0  0  0
   -0.2334  -18.8388    0.0000 C   0  0  0  0  0  0  0  0  0  0  0  0
   27.7332  -18.2221    0.0000 C   0  0  0  0  0  0  0  0  0  0  0  0
   34.1768  -18.5930    0.0000 C   0  0  0  0  0  0  0  0  0  0  0  0
   16.9758  -18.7138    0.0000 C   0  0  0  0  0  0  0  0  0  0  0  0
   12.6704  -18.7430    0.0000 C   0  0  0  0  0  0  0  0  0  0  0  0
   40.6412  -18.1303    0.0000 C   0  0  0  0  0  0  0  0  0  0  0  0
   32.0386  -18.1887    0.0000 C   0  0  0  0  0  0  0  0  0  0  0  0
   29.8755  -18.6180    0.0000 C   0  0  0  0  0  0  0  0  0  0  0  0
   42.7793  -18.5305    0.0000 C   0  0  0  0  0  0  0  0  0  0  0  0
   -2.3757  -18.4429    0.0000 C   0  0  0  0  0  0  0  0  0  0  0  0
   25.5783  -18.6555    0.0000 C   0  0  0  0  0  0  0  0  0  0  0  0
    4.0720  -18.8055    0.0000 C   0  0  0  0  0  0  0  0  0  0  0  0
   38.4821  -18.5597    0.0000 C   0  0  0  0  0  0  0  0  0  0  0  0
   21.2730  -18.6805    0.0000 C   0  0  0  0  0  0  0  0  0  0  0  0
   23.4361  -18.2512    0.0000 C   0  0  0  0  0  0  0  0  0  0  0  0
   10.5323  -18.3471    0.0000 C   0  0  0  0  0  0  0  0  0  0  0  0
   26.3035  -18.2304    0.0000 N   0  0  0  0  0  0  0  0  0  0  0  0
    4.7931  -18.3887    0.0000 N   0  0  0  0  0  0  0  0  0  0  0  0
   27.0079  -18.6388    0.0000 C   0  0  1  0  0  0  0  0  0  0  0  0
   30.6048  -18.2054    0.0000 N   0  0  0  0  0  0  0  0  0  0  0  0
   28.4417  -18.6347    0.0000 N   0  0  0  0  0  0  0  0  0  0  0  0
   39.2073  -18.1428    0.0000 N   0  0  0  0  0  0  0  0  0  0  0  0
   -1.6630  -18.8472    0.0000 N   0  0  0  0  0  0  0  0  0  0  0  0
    2.6383  -18.8180    0.0000 N   0  0  0  0  0  0  0  0  0  0  0  0
    5.5016  -18.7972    0.0000 C   0  0  2  0  0  0  0  0  0  0  0  0
   41.3497  -18.5388    0.0000 N   0  0  0  0  0  0  0  0  0  0  0  0
   14.1042  -18.7347    0.0000 C   0  0  1  0  0  0  0  0  0  0  0  0
   35.6105  -18.5805    0.0000 C   0  0  1  0  0  0  0  0  0  0  0  0
   18.4096  -18.7013    0.0000 C   0  0  1  0  0  0  0  0  0  0  0  0
   43.5086  -18.1095    0.0000 N   0  0  0  0  0  0  0  0  0  0  0  0
   19.8391  -18.6930    0.0000 N   0  0  0  0  0  0  0  0  0  0  0  0
   15.5379  -18.7222    0.0000 N   0  0  0  0  0  0  0  0  0  0  0  0
   37.0484  -18.5722    0.0000 N   0  0  0  0  0  0  0  0  0  0  0  0
   31.3134  -18.6138    0.0000 C   0  0  1  0  0  0  0  0  0  0  0  0
   39.9159  -18.5513    0.0000 C   0  0  1  0  0  0  0  0  0  0  0  0
   24.1446  -18.6597    0.0000 N   0  0  0  0  0  0  0  0  0  0  0  0
   32.7471  -18.5972    0.0000 N   0  0  0  0  0  0  0  0  0  0  0  0
   11.2408  -18.7555    0.0000 N   0  0  0  0  0  0  0  0  0  0  0  0
   22.0023  -18.2637    0.0000 N   0  0  0  0  0  0  0  0  0  0  0  0
    6.2268  -18.3762    0.0000 C   0  0  0  0  0  0  0  0  0  0  0  0
   -0.9420  -18.4304    0.0000 C   0  0  1  0  0  0  0  0  0  0  0  0
   39.9159  -19.3682    0.0000 C   0  0  0  0  0  0  0  0  0  0  0  0
   31.3134  -19.4307    0.0000 C   0  0  0  0  0  0  0  0  0  0  0  0
   42.0707  -18.1220    0.0000 C   0  0  1  0  0  0  0  0  0  0  0  0
   29.1711  -18.2096    0.0000 C   0  0  1  0  0  0  0  0  0  0  0  0
    1.0211  -16.7257    0.0000 N   0  0  0  0  0  0  0  0  0  0  0  0
   -3.0926  -18.8555    0.0000 C   0  0  1  0  0  0  0  0  0  0  0  0
   44.2172  -18.5179    0.0000 C   0  0  2  0  0  0  0  0  0  0  0  0
   44.9424  -18.1011    0.0000 C   0  0  0  0  0  0  0  0  0  0  0  0
   -3.8094  -18.4429    0.0000 N   0  0  0  0  0  0  0  0  0  0  0  0
   -0.2334  -17.1843    0.0000 C   0  0  0  0  0  0  0  0  0  0  0  0
    9.0985  -18.3554    0.0000 N   0  0  0  0  0  0  0  0  0  0  0  0
   24.8698  -18.2429    0.0000 C   0  0  1  0  0  0  0  0  0  0  0  0
   -0.9420  -17.5927    0.0000 C   0  0  0  0  0  0  0  0  0  0  0  0
   40.6412  -19.7850    0.0000 C   0  0  0  0  0  0  0  0  0  0  0  0
   -0.2626  -16.3465    0.0000 N   0  0  0  0  0  0  0  0  0  0  0  0
   32.0386  -19.8433    0.0000 C   0  0  0  0  0  0  0  0  0  0  0  0
    8.3692  -18.7763    0.0000 C   0  0  0  0  0  0  0  0  0  0  0  0
    6.9353  -18.7847    0.0000 N   0  0  0  0  0  0  0  0  0  0  0  0
   16.2673  -18.3054    0.0000 C   0  0  1  0  0  0  0  0  0  0  0  0
   20.5644  -18.2721    0.0000 C   0  0  1  0  0  0  0  0  0  0  0  0
    3.3635  -18.3971    0.0000 C   0  0  1  0  0  0  0  0  0  0  0  0
   33.4724  -18.1846    0.0000 C   0  0  1  0  0  0  0  0  0  0  0  0
   11.9660  -18.3346    0.0000 C   0  0  1  0  0  0  0  0  0  0  0  0
   37.7736  -18.1511    0.0000 C   0  0  1  0  0  0  0  0  0  0  0  0
   22.7067  -18.6722    0.0000 C   0  0  1  0  0  0  0  0  0  0  0  0
    0.5127  -16.0672    0.0000 C   0  0  0  0  0  0  0  0  0  0  0  0
   -4.5305  -18.8555    0.0000 C   0  0  0  0  0  0  0  0  0  0  0  0
    9.8071  -18.7638    0.0000 C   0  0  1  0  0  0  0  0  0  0  0  0
   25.5783  -16.1548    0.0000 C   0  0  0  0  0  0  0  0  0  0  0  0
    0.5544  -17.4009    0.0000 C   0  0  0  0  0  0  0  0  0  0  0  0
    1.9298  -17.5719    0.0000 O   0  0  0  0  0  0  0  0  0  0  0  0
   19.1348  -17.4426    0.0000 O   0  0  0  0  0  0  0  0  0  0  0  0
   14.8336  -17.4759    0.0000 O   0  0  0  0  0  0  0  0  0  0  0  0
   36.3399  -17.3176    0.0000 O   0  0  0  0  0  0  0  0  0  0  0  0
   27.7332  -17.3884    0.0000 O   0  0  0  0  0  0  0  0  0  0  0  0
   -0.2334  -19.6558    0.0000 O   0  0  0  0  0  0  0  0  0  0  0  0
   12.6704  -19.5600    0.0000 O   0  0  0  0  0  0  0  0  0  0  0  0
   34.1768  -19.4099    0.0000 O   0  0  0  0  0  0  0  0  0  0  0  0
   16.9758  -19.5307    0.0000 O   0  0  0  0  0  0  0  0  0  0  0  0
   42.7793  -19.3474    0.0000 O   0  0  0  0  0  0  0  0  0  0  0  0
   32.0386  -17.3509    0.0000 O   0  0  0  0  0  0  0  0  0  0  0  0
   29.8755  -19.4349    0.0000 O   0  0  0  0  0  0  0  0  0  0  0  0
   40.6412  -17.2926    0.0000 O   0  0  0  0  0  0  0  0  0  0  0  0
   -2.3757  -17.6010    0.0000 O   0  0  0  0  0  0  0  0  0  0  0  0
   21.2730  -19.4974    0.0000 O   0  0  0  0  0  0  0  0  0  0  0  0
   25.5783  -19.4682    0.0000 O   0  0  0  0  0  0  0  0  0  0  0  0
   23.4361  -17.4134    0.0000 O   0  0  0  0  0  0  0  0  0  0  0  0
   38.4821  -19.3765    0.0000 O   0  0  0  0  0  0  0  0  0  0  0  0
   10.5323  -17.5094    0.0000 O   0  0  0  0  0  0  0  0  0  0  0  0
    4.0720  -19.6225    0.0000 O   0  0  0  0  0  0  0  0  0  0  0  0
   42.0707  -17.2843    0.0000 C   0  0  0  0  0  0  0  0  0  0  0  0
   -3.0926  -19.6766    0.0000 C   0  0  0  0  0  0  0  0  0  0  0  0
   44.2172  -19.3349    0.0000 C   0  0  0  0  0  0  0  0  0  0  0  0
    6.2268  -17.5385    0.0000 O   0  0  0  0  0  0  0  0  0  0  0  0
   44.9424  -17.2593    0.0000 O   0  0  0  0  0  0  0  0  0  0  0  0
   29.1711  -17.3718    0.0000 C   0  0  0  0  0  0  0  0  0  0  0  0
    1.2004  -19.6433    0.0000 C   0  0  2  0  0  0  0  0  0  0  0  0
   40.6412  -20.6061    0.0000 O   0  0  0  0  0  0  0  0  0  0  0  0
   32.0386  -20.6603    0.0000 O   0  0  0  0  0  0  0  0  0  0  0  0
    8.3692  -19.5933    0.0000 O   0  0  0  0  0  0  0  0  0  0  0  0
   -4.5305  -19.6850    0.0000 O   0  0  0  0  0  0  0  0  0  0  0  0
   26.2869  -15.7463    0.0000 O   0  0  0  0  0  0  0  0  0  0  0  0
   24.8698  -17.4009    0.0000 C   0  0  0  0  0  0  0  0  0  0  0  0
    7.6648  -18.3679    0.0000 C   0  0  0  0  0  0  0  0  0  0  0  0
   35.6105  -19.3974    0.0000 C   0  0  0  0  0  0  0  0  0  0  0  0
   14.1042  -19.5516    0.0000 C   0  0  0  0  0  0  0  0  0  0  0  0
   18.4096  -19.5182    0.0000 C   0  0  2  0  0  0  0  0  0  0  0  0
   41.3664  -19.3682    0.0000 N   0  0  0  0  0  0  0  0  0  0  0  0
   25.5783  -16.9925    0.0000 C   0  0  0  0  0  0  0  0  0  0  0  0
   45.6509  -18.5096    0.0000 O   0  0  0  0  0  0  0  0  0  0  0  0
   32.7638  -19.4307    0.0000 O   0  0  0  0  0  0  0  0  0  0  0  0
   24.8531  -15.7379    0.0000 O   0  0  0  0  0  0  0  0  0  0  0  0
   -2.3715  -20.0934    0.0000 C   0  0  0  0  0  0  0  0  0  0  0  0
   44.9424  -19.7558    0.0000 C   0  0  0  0  0  0  0  0  0  0  0  0
   42.7793  -16.8758    0.0000 C   0  0  0  0  0  0  0  0  0  0  0  0
   27.0079  -19.4557    0.0000 C   0  0  0  0  0  0  0  0  0  0  0  0
    5.5016  -19.6141    0.0000 C   0  0  0  0  0  0  0  0  0  0  0  0
   -5.9685  -18.8639    0.0000 N   0  0  0  0  0  0  0  0  0  0  0  0
   17.6844  -14.9711    0.0000 N   0  0  0  0  0  0  0  0  0  0  0  0
   13.3789  -15.0044    0.0000 N   0  0  0  0  0  0  0  0  0  0  0  0
   39.1907  -14.8211    0.0000 N   0  0  0  0  0  0  0  0  0  0  0  0
   34.8853  -14.8461    0.0000 N   0  0  0  0  0  0  0  0  0  0  0  0
   24.1613  -21.9607    0.0000 N   0  0  0  0  0  0  0  0  0  0  0  0
   11.2575  -22.0565    0.0000 N   0  0  0  0  0  0  0  0  0  0  0  0
    1.9298  -20.0642    0.0000 O   0  0  0  0  0  0  0  0  0  0  0  0
   -5.2432  -18.4471    0.0000 C   0  0  0  0  0  0  0  0  0  0  0  0
   27.7332  -19.8809    0.0000 O   0  0  0  0  0  0  0  0  0  0  0  0
    6.2268  -20.0351    0.0000 O   0  0  0  0  0  0  0  0  0  0  0  0
   29.8755  -16.9633    0.0000 C   0  0  0  0  0  0  0  0  0  0  0  0
   16.2673  -17.4676    0.0000 C   0  0  0  0  0  0  0  0  0  0  0  0
   22.7067  -19.4890    0.0000 C   0  0  0  0  0  0  0  0  0  0  0  0
   37.7736  -17.3134    0.0000 C   0  0  0  0  0  0  0  0  0  0  0  0
   11.9660  -17.4968    0.0000 C   0  0  0  0  0  0  0  0  0  0  0  0
   33.4724  -17.3468    0.0000 C   0  0  0  0  0  0  0  0  0  0  0  0
    9.8071  -19.5808    0.0000 C   0  0  0  0  0  0  0  0  0  0  0  0
    3.3635  -17.5594    0.0000 C   0  0  0  0  0  0  0  0  0  0  0  0
   20.5644  -17.4343    0.0000 C   0  0  0  0  0  0  0  0  0  0  0  0
   24.1613  -21.1437    0.0000 C   0  0  0  0  0  0  0  0  0  0  0  0
   39.1907  -15.6588    0.0000 C   0  0  0  0  0  0  0  0  0  0  0  0
   11.2575  -21.2396    0.0000 C   0  0  0  0  0  0  0  0  0  0  0  0
   17.6844  -15.8089    0.0000 C   0  0  0  0  0  0  0  0  0  0  0  0
   13.3789  -15.8422    0.0000 C   0  0  0  0  0  0  0  0  0  0  0  0
   34.8853  -15.6838    0.0000 C   0  0  0  0  0  0  0  0  0  0  0  0
   17.7010  -19.9267    0.0000 C   0  0  0  0  0  0  0  0  0  0  0  0
    0.4959  -20.0517    0.0000 C   0  0  0  0  0  0  0  0  0  0  0  0
   14.8336  -19.9684    0.0000 C   0  0  0  0  0  0  0  0  0  0  0  0
   13.3956  -19.9601    0.0000 C   0  0  0  0  0  0  0  0  0  0  0  0
   36.3399  -19.8183    0.0000 C   0  0  0  0  0  0  0  0  0  0  0  0
   34.9020  -19.8058    0.0000 C   0  0  0  0  0  0  0  0  0  0  0  0
   19.1348  -19.9392    0.0000 C   0  0  0  0  0  0  0  0  0  0  0  0
   43.4961  -17.2676    0.0000 C   0  0  0  0  0  0  0  0  0  0  0  0
   -1.6547  -19.6683    0.0000 C   0  0  0  0  0  0  0  0  0  0  0  0
   44.9549  -20.5686    0.0000 C   0  0  0  0  0  0  0  0  0  0  0  0
   42.7709  -16.0339    0.0000 C   0  0  0  0  0  0  0  0  0  0  0  0
   45.6592  -19.3265    0.0000 C   0  0  0  0  0  0  0  0  0  0  0  0
   -2.3590  -20.9104    0.0000 C   0  0  0  0  0  0  0  0  0  0  0  0
   10.5323  -20.0017    0.0000 C   0  0  0  0  0  0  0  0  0  0  0  0
   23.4361  -19.9059    0.0000 C   0  0  0  0  0  0  0  0  0  0  0  0
   38.4821  -16.9050    0.0000 C   0  0  0  0  0  0  0  0  0  0  0  0
   34.1768  -16.9300    0.0000 C   0  0  0  0  0  0  0  0  0  0  0  0
   12.6704  -17.0883    0.0000 C   0  0  0  0  0  0  0  0  0  0  0  0
   16.9758  -17.0592    0.0000 C   0  0  0  0  0  0  0  0  0  0  0  0
   16.9758  -16.2215    0.0000 C   0  0  0  0  0  0  0  0  0  0  0  0
   34.1768  -16.0922    0.0000 C   0  0  0  0  0  0  0  0  0  0  0  0
   38.4821  -16.0672    0.0000 C   0  0  0  0  0  0  0  0  0  0  0  0
   12.6704  -16.2506    0.0000 C   0  0  0  0  0  0  0  0  0  0  0  0
   10.5323  -20.8186    0.0000 C   0  0  0  0  0  0  0  0  0  0  0  0
   23.4361  -20.7311    0.0000 C   0  0  0  0  0  0  0  0  0  0  0  0
   29.8755  -16.1255    0.0000 C   0  0  0  0  0  0  0  0  0  0  0  0
   30.5882  -17.3718    0.0000 C   0  0  0  0  0  0  0  0  0  0  0  0
   17.7010  -20.7686    0.0000 C   0  0  0  0  0  0  0  0  0  0  0  0
   -1.6422  -21.3188    0.0000 C   0  0  0  0  0  0  0  0  0  0  0  0
   44.2047  -16.8508    0.0000 C   0  0  0  0  0  0  0  0  0  0  0  0
   43.4795  -15.6171    0.0000 C   0  0  0  0  0  0  0  0  0  0  0  0
   46.3803  -19.7350    0.0000 C   0  0  0  0  0  0  0  0  0  0  0  0
   45.6717  -20.9729    0.0000 C   0  0  0  0  0  0  0  0  0  0  0  0
   -0.9378  -20.0767    0.0000 C   0  0  0  0  0  0  0  0  0  0  0  0
   46.3845  -20.5603    0.0000 C   0  0  0  0  0  0  0  0  0  0  0  0
   -0.9336  -20.8979    0.0000 C   0  0  0  0  0  0  0  0  0  0  0  0
   44.2005  -16.0214    0.0000 C   0  0  0  0  0  0  0  0  0  0  0  0
  1  2  1  0  0  0  0
  1  3  1  6  0  0  0
 36  4  1  0  0  0  0
 38  5  1  0  0  0  0
 37  6  1  0  0  0  0
  7 14  1  0  0  0  0
  8 12  1  0  0  0  0
  9 13  1  0  0  0  0
 10  3  1  0  0  0  0
 28 11  1  0  0  0  0
 72 12  1  0  0  0  0
 69 13  1  0  0  0  0
 73 14  1  0  0  0  0
 44 15  1  0  0  0  0
 43 16  1  0  0  0  0
 54 17  1  0  0  0  0
 53 18  1  0  0  0  0
 19 32  1  0  0  0  0
 62 20  1  0  0  0  0
 71 21  1  0  0  0  0
 74 22  1  0  0  0  0
 70 23  1  0  0  0  0
 75 24  1  0  0  0  0
 78 25  1  0  0  0  0
 26 20  1  0  0  0  0
 27 21  1  0  0  0  0
 28 26  1  6  0  0  0
 29 17  1  0  0  0  0
 30 11  1  0  0  0  0
 31 22  1  0  0  0  0
 50 32  1  1  0  0  0
 33  2  1  0  0  0  0
 34 27  1  6  0  0  0
 35 15  1  0  0  0  0
 36  7  1  6  0  0  0
 37  8  1  6  0  0  0
 38  9  1  6  0  0  0
 39 18  1  0  0  0  0
 40  5  1  0  0  0  0
 41  4  1  0  0  0  0
 42  6  1  0  0  0  0
 43 29  1  6  0  0  0
 44 31  1  6  0  0  0
 45 24  1  0  0  0  0
 46 16  1  0  0  0  0
 47 25  1  0  0  0  0
 48 23  1  0  0  0  0
 34 49  1  0  0  0  0
 50 10  1  0  0  0  0
 44 51  1  0  0  0  0
 43 52  1  0  0  0  0
 53 35  1  1  0  0  0
 54 30  1  1  0  0  0
 55 80  1  0  0  0  0
 56 19  1  0  0  0  0
 57 39  1  6  0  0  0
 57 58  1  0  0  0  0
 56 59  1  6  0  0  0
 60 63  1  0  0  0  0
 61 67  1  0  0  0  0
 62 45  1  1  0  0  0
 50 63  1  0  0  0  0
 64 51  1  0  0  0  0
 65 60  1  0  0  0  0
 66 52  1  0  0  0  0
 67114  1  0  0  0  0
 68 49  1  0  0  0  0
 69 41  1  1  0  0  0
 70 40  1  0  0  0  0
 71 33  1  0  0  0  0
 72 46  1  1  0  0  0
 73 47  1  1  0  0  0
 74 42  1  1  0  0  0
 75 48  1  6  0  0  0
 76 65  1  0  0  0  0
 77 59  1  0  0  0  0
 78 61  1  6  0  0  0
 79119  1  0  0  0  0
 80 60  2  0  0  0  0
 81  2  2  0  0  0  0
 82  5  2  0  0  0  0
 83  4  2  0  0  0  0
 84  6  2  0  0  0  0
 85 11  2  0  0  0  0
 86 10  2  0  0  0  0
 87 14  2  0  0  0  0
 88 12  2  0  0  0  0
 89 13  2  0  0  0  0
 90 18  2  0  0  0  0
 91 16  2  0  0  0  0
 92 17  2  0  0  0  0
 93 15  2  0  0  0  0
 94 19  2  0  0  0  0
 95 23  2  0  0  0  0
 96 20  2  0  0  0  0
 97 24  2  0  0  0  0
 98 22  2  0  0  0  0
 99 25  2  0  0  0  0
100 21  2  0  0  0  0
 53101  1  0  0  0  0
 56102  1  0  0  0  0
 57103  1  0  0  0  0
104 49  2  0  0  0  0
105 58  2  0  0  0  0
 54106  1  0  0  0  0
  1107  1  0  0  0  0
108 64  2  0  0  0  0
109 66  2  0  0  0  0
110 67  2  0  0  0  0
111 77  2  0  0  0  0
112 79  2  0  0  0  0
 62113  1  0  0  0  0
114 68  1  0  0  0  0
 37115  1  0  0  0  0
 36116  1  0  0  0  0
 38117  1  0  0  0  0
118 64  1  0  0  0  0
119113  1  0  0  0  0
120 58  1  0  0  0  0
121 66  1  0  0  0  0
122 79  1  0  0  0  0
123102  1  0  0  0  0
124103  1  0  0  0  0
125101  1  0  0  0  0
 28126  1  0  0  0  0
 34127  1  0  0  0  0
128136  1  0  0  0  0
129151  1  0  0  0  0
130152  1  0  0  0  0
131149  1  0  0  0  0
132153  1  0  0  0  0
133148  1  0  0  0  0
134150  1  0  0  0  0
107135  1  6  0  0  0
136 77  1  0  0  0  0
137126  1  0  0  0  0
138127  1  0  0  0  0
139106  1  0  0  0  0
 69140  1  0  0  0  0
 75141  1  0  0  0  0
 74142  1  0  0  0  0
 73143  1  0  0  0  0
 72144  1  0  0  0  0
 78145  1  0  0  0  0
 71146  1  1  0  0  0
 70147  1  1  0  0  0
148178  1  0  0  0  0
149175  1  0  0  0  0
150177  1  0  0  0  0
151173  1  0  0  0  0
152176  1  0  0  0  0
153174  1  0  0  0  0
117154  1  0  0  0  0
107155  1  0  0  0  0
156116  1  0  0  0  0
157116  1  0  0  0  0
158115  1  0  0  0  0
159115  1  0  0  0  0
117160  1  1  0  0  0
161125  2  0  0  0  0
162123  2  0  0  0  0
163124  2  0  0  0  0
164125  1  0  0  0  0
165124  1  0  0  0  0
166123  1  0  0  0  0
167145  1  0  0  0  0
168141  1  0  0  0  0
169142  1  0  0  0  0
170144  1  0  0  0  0
171143  1  0  0  0  0
172140  1  0  0  0  0
173172  1  0  0  0  0
174170  1  0  0  0  0
175169  1  0  0  0  0
176171  1  0  0  0  0
177167  1  0  0  0  0
178168  1  0  0  0  0
179139  1  0  0  0  0
180139  1  0  0  0  0
181154  1  0  0  0  0
182166  2  0  0  0  0
183161  1  0  0  0  0
184164  2  0  0  0  0
185165  2  0  0  0  0
186163  1  0  0  0  0
187162  1  0  0  0  0
188185  1  0  0  0  0
189187  2  0  0  0  0
190183  2  0  0  0  0
 55 76  2  0  0  0  0
182189  1  0  0  0  0
184190  1  0  0  0  0
186188  2  0  0  0  0
M  END
> <From>
www.bindingDB.org

> <BindingDB Reactant_set_id>
51016968

> <Ligand InChI>
InChI=1S/C124H199N33O33/c1-12-70(8)101(156-112(177)83(45-27-33-53-130)145-121(186)100(69(6)7)154-110(175)81(43-25-31-51-128)141-106(171)78(40-22-28-48-125)138-96(163)63-134-105(170)92(64-158)152-104(169)72(10)137-123(188)102(73(11)160)157-118(183)88(58-77-62-133-66-135-77)148-114(179)86(139-95(162)61-131)55-74-34-16-13-17-35-74)122(187)136-71(9)103(168)140-79(41-23-29-49-126)107(172)143-84(46-47-97(164)165)109(174)153-93(65-159)119(184)146-85(54-67(2)3)113(178)150-90(60-98(166)167)117(182)142-82(44-26-32-52-129)111(176)155-99(68(4)5)120(185)144-80(42-24-30-50-127)108(173)149-89(59-94(132)161)116(181)147-87(56-75-36-18-14-19-37-75)115(180)151-91(124(189)190)57-76-38-20-15-21-39-76/h13-21,34-39,62,66-73,78-93,99-102,158-160H,12,22-33,40-61,63-65,125-131H2,1-11H3,(H2,132,161)(H,133,135)(H,134,170)(H,136,187)(H,137,188)(H,138,163)(H,139,162)(H,140,168)(H,141,171)(H,142,182)(H,143,172)(H,144,185)(H,145,186)(H,146,184)(H,147,181)(H,148,179)(H,149,173)(H,150,178)(H,151,180)(H,152,169)(H,153,174)(H,154,175)(H,155,176)(H,156,177)(H,157,183)(H,164,165)(H,166,167)(H,189,190)/t70-,71-,72-,73+,78-,79-,80-,81-,82-,83-,84-,85-,86-,87-,88-,89-,90-,91-,92-,93-,99-,100-,101-,102-/m0/s1

> <Ligand InChI Key>
DHYHTDQJAKBYOW-JNVWVPGISA-N

> <BindingDB MonomerID>
50416569

> <BindingDB Ligand Name>
CHEMBL1215818

> <Target Name>
DNA repair protein RAD51 homolog 1

> <Target Source Organism According to Curator or DataSource>
Homo sapiens

> <Ki (nM)>
 4200

> <IC50 (nM)>


> <Kd (nM)>


> <EC50 (nM)>


> <kon (M-1-s-1)>


> <koff (s-1)>


> <pH>


> <Temp C>


> <Curation/DataSource>
ChEMBL

> <Article DOI>
10.1021/jm1002974

> <BindingDB Entry DOI>
10.7270/Q2NG4RV5

> <PMID>
20684611

> <PubChem AID>


> <Patent Number>


> <Authors>
Nomme, J; Renodon-Corniere, A; Asanomi, Y; Sakaguchi, K; Stasiak, AZ; Stasiak, A; Norden, B; Tran, V; Takahashi, M

> <Date of publication>
8/5/2010

> <Date in BindingDB>
5/22/2013

> <Institution>
Centre National de la Recherche Scientifique & Universite de Nantes

> <Link to Ligand in BindingDB>
http://www.bindingdb.org/bind/chemsearch/marvin/MolStructure.jsp?monomerid=50416569

> <Link to Ligand-Target Pair in BindingDB>
http://www.bindingdb.org/jsp/dbsearch/PrimarySearch_ki.jsp?energyterm=kJ/mole&tag=pol&polymerid=4676&target=DNA+repair+protein+RAD51+homolog+1&column=ki&startPg=0&Increment=50&submit=Search

> <Link to Ligand-Target Pair in BindingDB>
http://www.bindingdb.org/jsp/dbsearch/PrimarySearch_ki.jsp?energyterm=kJ/mole&tag=r21&monomerid=50416569&enzyme=DNA+repair+protein+RAD51+homolog+1&column=ki&startPg=0&Increment=50&submit=Search

> <Ligand HET ID in PDB>


> <PDB ID(s) for Ligand-Target Complex>


> <PubChem CID of Ligand>
49864246

> <PubChem SID of Ligand>
163365593

> <ChEBI ID of Ligand>


> <ChEMBL ID of Ligand>
CHEMBL1215818

> <DrugBank ID of Ligand>


> <IUPHAR_GRAC ID of Ligand>


> <KEGG ID of Ligand>


> <ZINC ID of Ligand>


> <Number of Protein Chains in Target (bigger than 1 implies a multichain complex)>
1

> <BindingDB Target Chain Sequence>
MAMQMQLEANADTSVEEESFGPQPISRLEQCGINANDVKKLEEAGFHTVEAVAYAPKKELINIKGISEAKADKILAEAAKLVPMGFTTATEFHQRRSEIIQITTGSKELDKLLQGGIETGSITEMFGEFRTGKTQICHTLAVTCQLPIDRGGGEGKAMYIDTEGTFRPERLLAVAERYGLSGSDVLDNVAYARAFNTDHQTQLLYQASAMMVESRYALLIVDSATALYRTDYSGRGELSARQMHLARFLRMLLRLADEFGVAVVITNQVVAQVDGAAMFAADPKKPIGGNIIAHASTTRLYLRKGRGETRICKIYDSPCLPEAEAMFAINADGVGDAKD

> <PDB ID(s) of Target Chain>
1N0W,5JZC,5NP7,5NWL,8BQ2,8BR2,8BSC

> <UniProt (SwissProt) Recommended Name of Target Chain>
DNA repair protein RAD51 homolog 1

> <UniProt (SwissProt) Entry Name of Target Chain>
RAD51_HUMAN

> <UniProt (SwissProt) Primary ID of Target Chain>
Q06609

> <UniProt (SwissProt) Secondary ID(s) of Target Chain>
B0FXP0 B2R8T6 Q6FHX9 Q6ZNA8 Q9BV60

> <UniProt (SwissProt) Alternative ID(s) of Target Chain>


> <UniProt (TrEMBL) Submitted Name of Target Chain>


> <UniProt (TrEMBL) Entry Name of Target Chain>


> <UniProt (TrEMBL) Primary ID of Target Chain>


> <UniProt (TrEMBL) Secondary ID(s) of Target Chain>


> <UniProt (TrEMBL) Alternative ID(s) of Target Chain>


$$$$

  Mrv0541 11241415252D          

189191  0  0  0  0            999 V2000
    2.2500  -26.8625    0.0000 C   0  0  1  0  0  0  0  0  0  0  0  0
    2.9625  -26.4500    0.0000 C   0  0  0  0  0  0  0  0  0  0  0  0
    1.5333  -26.4500    0.0000 N   0  0  0  0  0  0  0  0  0  0  0  0
   15.8375  -26.4500    0.0000 C   0  0  0  0  0  0  0  0  0  0  0  0
   20.1292  -26.4500    0.0000 C   0  0  0  0  0  0  0  0  0  0  0  0
   36.5792  -27.6875    0.0000 C   0  0  0  0  0  0  0  0  0  0  0  0
   14.4083  -26.4500    0.0000 N   0  0  0  0  0  0  0  0  0  0  0  0
   35.1458  -27.6875    0.0000 N   0  0  0  0  0  0  0  0  0  0  0  0
   18.7000  -26.4500    0.0000 N   0  0  0  0  0  0  0  0  0  0  0  0
    0.8208  -26.8625    0.0000 C   0  0  0  0  0  0  0  0  0  0  0  0
   28.7125  -26.4500    0.0000 C   0  0  0  0  0  0  0  0  0  0  0  0
   34.4333  -28.1000    0.0000 C   0  0  0  0  0  0  0  0  0  0  0  0
   17.9833  -26.8625    0.0000 C   0  0  0  0  0  0  0  0  0  0  0  0
   13.6958  -26.8625    0.0000 C   0  0  0  0  0  0  0  0  0  0  0  0
   40.8667  -27.6875    0.0000 C   0  0  0  0  0  0  0  0  0  0  0  0
   32.2875  -27.6875    0.0000 C   0  0  0  0  0  0  0  0  0  0  0  0
   43.0167  -28.1000    0.0000 C   0  0  0  0  0  0  0  0  0  0  0  0
   30.8583  -26.8625    0.0000 C   0  0  0  0  0  0  0  0  0  0  0  0
   -1.3250  -26.4500    0.0000 C   0  0  0  0  0  0  0  0  0  0  0  0
   26.5667  -26.8625    0.0000 C   0  0  0  0  0  0  0  0  0  0  0  0
    5.1083  -26.8625    0.0000 C   0  0  0  0  0  0  0  0  0  0  0  0
   38.7208  -28.1000    0.0000 C   0  0  0  0  0  0  0  0  0  0  0  0
   22.2792  -26.8625    0.0000 C   0  0  0  0  0  0  0  0  0  0  0  0
   24.4250  -26.4500    0.0000 C   0  0  0  0  0  0  0  0  0  0  0  0
   11.5500  -26.4500    0.0000 C   0  0  0  0  0  0  0  0  0  0  0  0
   27.2833  -26.4500    0.0000 N   0  0  0  0  0  0  0  0  0  0  0  0
    5.8292  -26.4500    0.0000 N   0  0  0  0  0  0  0  0  0  0  0  0
   28.0000  -26.8625    0.0000 C   0  0  1  0  0  0  0  0  0  0  0  0
   30.8583  -27.6875    0.0000 N   0  0  0  0  0  0  0  0  0  0  0  0
   29.4292  -26.8625    0.0000 N   0  0  0  0  0  0  0  0  0  0  0  0
   39.4375  -27.6875    0.0000 N   0  0  0  0  0  0  0  0  0  0  0  0
    3.6792  -26.8625    0.0000 N   0  0  0  0  0  0  0  0  0  0  0  0
    6.5417  -26.8625    0.0000 C   0  0  2  0  0  0  0  0  0  0  0  0
   41.5875  -28.1000    0.0000 N   0  0  0  0  0  0  0  0  0  0  0  0
   -0.6125  -26.8625    0.0000 N   0  0  0  0  0  0  0  0  0  0  0  0
   15.1250  -26.8625    0.0000 C   0  0  1  0  0  0  0  0  0  0  0  0
   35.8625  -28.1000    0.0000 C   0  0  1  0  0  0  0  0  0  0  0  0
   19.4125  -26.8625    0.0000 C   0  0  1  0  0  0  0  0  0  0  0  0
   43.0167  -28.9250    0.0000 N   0  0  0  0  0  0  0  0  0  0  0  0
   20.8458  -26.8625    0.0000 N   0  0  0  0  0  0  0  0  0  0  0  0
   16.5542  -26.8625    0.0000 N   0  0  0  0  0  0  0  0  0  0  0  0
   37.2917  -28.1000    0.0000 N   0  0  0  0  0  0  0  0  0  0  0  0
   40.1583  -28.1000    0.0000 C   0  0  1  0  0  0  0  0  0  0  0  0
   31.5750  -28.1000    0.0000 C   0  0  1  0  0  0  0  0  0  0  0  0
   25.1375  -26.8625    0.0000 N   0  0  0  0  0  0  0  0  0  0  0  0
   33.0042  -28.1000    0.0000 N   0  0  0  0  0  0  0  0  0  0  0  0
   12.2625  -26.8625    0.0000 N   0  0  0  0  0  0  0  0  0  0  0  0
   22.9917  -26.4500    0.0000 N   0  0  0  0  0  0  0  0  0  0  0  0
    7.2583  -26.4500    0.0000 C   0  0  0  0  0  0  0  0  0  0  0  0
   40.1583  -28.9250    0.0000 C   0  0  0  0  0  0  0  0  0  0  0  0
   31.5750  -28.9250    0.0000 C   0  0  0  0  0  0  0  0  0  0  0  0
    0.1042  -26.4500    0.0000 C   0  0  1  0  0  0  0  0  0  0  0  0
   30.1417  -26.4500    0.0000 C   0  0  1  0  0  0  0  0  0  0  0  0
   42.3000  -27.6875    0.0000 C   0  0  1  0  0  0  0  0  0  0  0  0
   -2.0417  -26.8625    0.0000 C   0  0  1  0  0  0  0  0  0  0  0  0
   43.7333  -29.3375    0.0000 C   0  0  2  0  0  0  0  0  0  0  0  0
   44.4458  -28.9250    0.0000 C   0  0  0  0  0  0  0  0  0  0  0  0
   -2.7542  -26.4500    0.0000 N   0  0  0  0  0  0  0  0  0  0  0  0
   10.1208  -26.4500    0.0000 N   0  0  0  0  0  0  0  0  0  0  0  0
   25.8542  -26.4500    0.0000 C   0  0  1  0  0  0  0  0  0  0  0  0
   40.8667  -29.3375    0.0000 C   0  0  0  0  0  0  0  0  0  0  0  0
   30.8583  -29.3375    0.0000 C   0  0  0  0  0  0  0  0  0  0  0  0
    9.4042  -26.8625    0.0000 C   0  0  0  0  0  0  0  0  0  0  0  0
    7.9750  -26.8625    0.0000 N   0  0  0  0  0  0  0  0  0  0  0  0
   17.2708  -26.4500    0.0000 C   0  0  1  0  0  0  0  0  0  0  0  0
   21.5583  -26.4500    0.0000 C   0  0  1  0  0  0  0  0  0  0  0  0
    4.4000  -26.4500    0.0000 C   0  0  1  0  0  0  0  0  0  0  0  0
   12.9792  -26.4500    0.0000 C   0  0  1  0  0  0  0  0  0  0  0  0
   33.7167  -27.6875    0.0000 C   0  0  1  0  0  0  0  0  0  0  0  0
   38.0083  -27.6875    0.0000 C   0  0  1  0  0  0  0  0  0  0  0  0
   23.7083  -26.8625    0.0000 C   0  0  1  0  0  0  0  0  0  0  0  0
   -3.4708  -26.8625    0.0000 C   0  0  0  0  0  0  0  0  0  0  0  0
   10.8333  -26.8625    0.0000 C   0  0  1  0  0  0  0  0  0  0  0  0
   26.5667  -24.3875    0.0000 C   0  0  0  0  0  0  0  0  0  0  0  0
    2.9625  -25.6250    0.0000 O   0  0  0  0  0  0  0  0  0  0  0  0
   36.5792  -26.8625    0.0000 O   0  0  0  0  0  0  0  0  0  0  0  0
   15.8375  -25.6250    0.0000 O   0  0  0  0  0  0  0  0  0  0  0  0
   20.1292  -25.6250    0.0000 O   0  0  0  0  0  0  0  0  0  0  0  0
   28.7125  -25.6250    0.0000 O   0  0  0  0  0  0  0  0  0  0  0  0
    0.8208  -27.6875    0.0000 O   0  0  0  0  0  0  0  0  0  0  0  0
   13.6958  -27.6875    0.0000 O   0  0  0  0  0  0  0  0  0  0  0  0
   17.9833  -27.6875    0.0000 O   0  0  0  0  0  0  0  0  0  0  0  0
   34.4333  -28.9250    0.0000 O   0  0  0  0  0  0  0  0  0  0  0  0
   40.8667  -26.8625    0.0000 O   0  0  0  0  0  0  0  0  0  0  0  0
   -1.3250  -25.6250    0.0000 O   0  0  0  0  0  0  0  0  0  0  0  0
   31.5750  -26.4500    0.0000 O   0  0  0  0  0  0  0  0  0  0  0  0
   32.2875  -26.8625    0.0000 O   0  0  0  0  0  0  0  0  0  0  0  0
   43.7333  -27.6875    0.0000 O   0  0  0  0  0  0  0  0  0  0  0  0
    5.1083  -27.6875    0.0000 O   0  0  0  0  0  0  0  0  0  0  0  0
   22.2792  -27.6875    0.0000 O   0  0  0  0  0  0  0  0  0  0  0  0
   26.5667  -27.6875    0.0000 O   0  0  0  0  0  0  0  0  0  0  0  0
   38.7208  -28.9250    0.0000 O   0  0  0  0  0  0  0  0  0  0  0  0
   24.4250  -25.6250    0.0000 O   0  0  0  0  0  0  0  0  0  0  0  0
   11.5500  -25.6250    0.0000 O   0  0  0  0  0  0  0  0  0  0  0  0
    0.1042  -25.6250    0.0000 C   0  0  0  0  0  0  0  0  0  0  0  0
   -2.0417  -27.6875    0.0000 C   0  0  0  0  0  0  0  0  0  0  0  0
   43.7333  -30.1667    0.0000 C   0  0  0  0  0  0  0  0  0  0  0  0
    7.2583  -25.6250    0.0000 O   0  0  0  0  0  0  0  0  0  0  0  0
   45.1625  -29.3375    0.0000 O   0  0  0  0  0  0  0  0  0  0  0  0
   42.3000  -26.8625    0.0000 C   0  0  0  0  0  0  0  0  0  0  0  0
   30.1417  -25.6250    0.0000 C   0  0  0  0  0  0  0  0  0  0  0  0
    2.2500  -27.6875    0.0000 C   0  0  2  0  0  0  0  0  0  0  0  0
   40.8667  -30.1667    0.0000 O   0  0  0  0  0  0  0  0  0  0  0  0
   30.1417  -28.9250    0.0000 O   0  0  0  0  0  0  0  0  0  0  0  0
    9.4042  -27.6875    0.0000 O   0  0  0  0  0  0  0  0  0  0  0  0
   -3.4708  -27.6875    0.0000 O   0  0  0  0  0  0  0  0  0  0  0  0
   27.2833  -23.9708    0.0000 O   0  0  0  0  0  0  0  0  0  0  0  0
   25.8542  -25.6250    0.0000 C   0  0  0  0  0  0  0  0  0  0  0  0
    8.6875  -26.4500    0.0000 C   0  0  0  0  0  0  0  0  0  0  0  0
   15.1250  -27.6875    0.0000 C   0  0  0  0  0  0  0  0  0  0  0  0
   35.8625  -28.9250    0.0000 C   0  0  0  0  0  0  0  0  0  0  0  0
   19.4125  -27.6875    0.0000 C   0  0  2  0  0  0  0  0  0  0  0  0
   41.5875  -28.9250    0.0000 N   0  0  0  0  0  0  0  0  0  0  0  0
   26.5667  -25.2083    0.0000 C   0  0  0  0  0  0  0  0  0  0  0  0
    0.8208  -25.2083    0.0000 C   0  0  0  0  0  0  0  0  0  0  0  0
   44.4458  -28.1000    0.0000 O   0  0  0  0  0  0  0  0  0  0  0  0
    2.2458  -24.3833    0.0000 C   0  0  0  0  0  0  0  0  0  0  0  0
   30.8583  -30.1667    0.0000 O   0  0  0  0  0  0  0  0  0  0  0  0
   25.8542  -23.9708    0.0000 O   0  0  0  0  0  0  0  0  0  0  0  0
   44.4458  -30.5792    0.0000 C   0  0  0  0  0  0  0  0  0  0  0  0
   -1.3250  -28.1000    0.0000 C   0  0  0  0  0  0  0  0  0  0  0  0
   28.0000  -27.6875    0.0000 C   0  0  0  0  0  0  0  0  0  0  0  0
    6.5417  -27.6875    0.0000 C   0  0  0  0  0  0  0  0  0  0  0  0
   -4.9000  -26.8625    0.0000 N   0  0  0  0  0  0  0  0  0  0  0  0
    1.5333  -25.6250    0.0000 C   0  0  0  0  0  0  0  0  0  0  0  0
    0.8208  -24.3833    0.0000 C   0  0  0  0  0  0  0  0  0  0  0  0
   14.4083  -23.1458    0.0000 N   0  0  0  0  0  0  0  0  0  0  0  0
   39.4375  -24.3875    0.0000 N   0  0  0  0  0  0  0  0  0  0  0  0
   33.7167  -24.3875    0.0000 N   0  0  0  0  0  0  0  0  0  0  0  0
   25.1375  -30.1667    0.0000 N   0  0  0  0  0  0  0  0  0  0  0  0
   12.2625  -30.1667    0.0000 N   0  0  0  0  0  0  0  0  0  0  0  0
   18.7000  -23.1458    0.0000 N   0  0  0  0  0  0  0  0  0  0  0  0
    2.2458  -25.2083    0.0000 C   0  0  0  0  0  0  0  0  0  0  0  0
    1.5333  -23.9750    0.0000 C   0  0  0  0  0  0  0  0  0  0  0  0
    2.9625  -28.1000    0.0000 O   0  0  0  0  0  0  0  0  0  0  0  0
    2.9625  -23.9750    0.0000 O   0  0  0  0  0  0  0  0  0  0  0  0
   -4.1875  -26.4500    0.0000 C   0  0  0  0  0  0  0  0  0  0  0  0
    7.2583  -28.1000    0.0000 O   0  0  0  0  0  0  0  0  0  0  0  0
   28.7125  -28.1000    0.0000 O   0  0  0  0  0  0  0  0  0  0  0  0
   43.0167  -26.4500    0.0000 C   0  0  0  0  0  0  0  0  0  0  0  0
   30.8583  -25.2083    0.0000 C   0  0  0  0  0  0  0  0  0  0  0  0
   17.2708  -25.6250    0.0000 C   0  0  0  0  0  0  0  0  0  0  0  0
   33.7167  -26.8625    0.0000 C   0  0  0  0  0  0  0  0  0  0  0  0
   23.7083  -27.6875    0.0000 C   0  0  0  0  0  0  0  0  0  0  0  0
   12.9792  -25.6250    0.0000 C   0  0  0  0  0  0  0  0  0  0  0  0
   38.0083  -26.8625    0.0000 C   0  0  0  0  0  0  0  0  0  0  0  0
   10.8333  -27.6875    0.0000 C   0  0  0  0  0  0  0  0  0  0  0  0
    4.4000  -25.6250    0.0000 C   0  0  0  0  0  0  0  0  0  0  0  0
   21.5583  -25.6250    0.0000 C   0  0  0  0  0  0  0  0  0  0  0  0
   12.2625  -29.3375    0.0000 C   0  0  0  0  0  0  0  0  0  0  0  0
   18.7000  -23.9708    0.0000 C   0  0  0  0  0  0  0  0  0  0  0  0
   14.4083  -23.9708    0.0000 C   0  0  0  0  0  0  0  0  0  0  0  0
   33.7167  -25.2083    0.0000 C   0  0  0  0  0  0  0  0  0  0  0  0
   25.1375  -29.3375    0.0000 C   0  0  0  0  0  0  0  0  0  0  0  0
   39.4375  -25.2083    0.0000 C   0  0  0  0  0  0  0  0  0  0  0  0
   18.7000  -28.1000    0.0000 C   0  0  0  0  0  0  0  0  0  0  0  0
    1.5333  -28.1000    0.0000 C   0  0  0  0  0  0  0  0  0  0  0  0
   15.8375  -28.1000    0.0000 C   0  0  0  0  0  0  0  0  0  0  0  0
   14.4083  -28.1000    0.0000 C   0  0  0  0  0  0  0  0  0  0  0  0
   36.5792  -29.3375    0.0000 C   0  0  0  0  0  0  0  0  0  0  0  0
   35.1458  -29.3375    0.0000 C   0  0  0  0  0  0  0  0  0  0  0  0
   20.1292  -28.1000    0.0000 C   0  0  0  0  0  0  0  0  0  0  0  0
   45.1583  -30.1667    0.0000 C   0  0  0  0  0  0  0  0  0  0  0  0
   -1.3250  -28.9250    0.0000 C   0  0  0  0  0  0  0  0  0  0  0  0
   44.4458  -31.4000    0.0000 C   0  0  0  0  0  0  0  0  0  0  0  0
   -0.6083  -27.6875    0.0000 C   0  0  0  0  0  0  0  0  0  0  0  0
   11.5500  -28.1000    0.0000 C   0  0  0  0  0  0  0  0  0  0  0  0
   24.4250  -28.1000    0.0000 C   0  0  0  0  0  0  0  0  0  0  0  0
   38.7208  -26.4500    0.0000 C   0  0  0  0  0  0  0  0  0  0  0  0
   33.0042  -26.4500    0.0000 C   0  0  0  0  0  0  0  0  0  0  0  0
   13.6958  -25.2083    0.0000 C   0  0  0  0  0  0  0  0  0  0  0  0
   17.9833  -25.2083    0.0000 C   0  0  0  0  0  0  0  0  0  0  0  0
   17.9833  -24.3875    0.0000 C   0  0  0  0  0  0  0  0  0  0  0  0
   33.0042  -25.6250    0.0000 C   0  0  0  0  0  0  0  0  0  0  0  0
   38.7208  -25.6250    0.0000 C   0  0  0  0  0  0  0  0  0  0  0  0
   13.6958  -24.3875    0.0000 C   0  0  0  0  0  0  0  0  0  0  0  0
   11.5500  -28.9250    0.0000 C   0  0  0  0  0  0  0  0  0  0  0  0
   24.4250  -28.9250    0.0000 C   0  0  0  0  0  0  0  0  0  0  0  0
   30.8583  -24.3875    0.0000 C   0  0  0  0  0  0  0  0  0  0  0  0
   43.0167  -25.6250    0.0000 C   0  0  0  0  0  0  0  0  0  0  0  0
   43.7333  -26.8625    0.0000 C   0  0  0  0  0  0  0  0  0  0  0  0
   31.5750  -25.6250    0.0000 C   0  0  0  0  0  0  0  0  0  0  0  0
   18.7000  -28.9250    0.0000 C   0  0  0  0  0  0  0  0  0  0  0  0
   -0.6083  -29.3375    0.0000 C   0  0  0  0  0  0  0  0  0  0  0  0
   45.1583  -31.8167    0.0000 C   0  0  0  0  0  0  0  0  0  0  0  0
   45.8708  -30.5792    0.0000 C   0  0  0  0  0  0  0  0  0  0  0  0
    0.1000  -28.1000    0.0000 C   0  0  0  0  0  0  0  0  0  0  0  0
    0.1000  -28.9250    0.0000 C   0  0  0  0  0  0  0  0  0  0  0  0
   45.8708  -31.4000    0.0000 C   0  0  0  0  0  0  0  0  0  0  0  0
  1  2  1  0  0  0  0
  1  3  1  6  0  0  0
 36  4  1  0  0  0  0
 38  5  1  0  0  0  0
 37  6  1  0  0  0  0
  7 14  1  0  0  0  0
  8 12  1  0  0  0  0
  9 13  1  0  0  0  0
 10  3  1  0  0  0  0
 28 11  1  0  0  0  0
 69 12  1  0  0  0  0
 65 13  1  0  0  0  0
 68 14  1  0  0  0  0
 43 15  1  0  0  0  0
 44 16  1  0  0  0  0
 54 17  1  0  0  0  0
 53 18  1  0  0  0  0
 19 35  1  0  0  0  0
 60 20  1  0  0  0  0
 67 21  1  0  0  0  0
 70 22  1  0  0  0  0
 66 23  1  0  0  0  0
 71 24  1  0  0  0  0
 73 25  1  0  0  0  0
 26 20  1  0  0  0  0
 27 21  1  0  0  0  0
 28 26  1  6  0  0  0
 29 18  1  0  0  0  0
 30 11  1  0  0  0  0
 31 22  1  0  0  0  0
 32  2  1  0  0  0  0
 33 27  1  6  0  0  0
 34 15  1  0  0  0  0
 52 35  1  1  0  0  0
 36  7  1  6  0  0  0
 37  8  1  6  0  0  0
 38  9  1  6  0  0  0
 39 17  1  0  0  0  0
 40  5  1  0  0  0  0
 41  4  1  0  0  0  0
 42  6  1  0  0  0  0
 43 31  1  6  0  0  0
 44 29  1  6  0  0  0
 45 24  1  0  0  0  0
 46 16  1  0  0  0  0
 47 25  1  0  0  0  0
 48 23  1  0  0  0  0
 33 49  1  0  0  0  0
 43 50  1  0  0  0  0
 44 51  1  0  0  0  0
 52 10  1  0  0  0  0
 53 30  1  1  0  0  0
 54 34  1  1  0  0  0
 55 19  1  0  0  0  0
 56 39  1  6  0  0  0
 56 57  1  0  0  0  0
 55 58  1  6  0  0  0
 59 63  1  0  0  0  0
 60 45  1  1  0  0  0
 61 50  1  0  0  0  0
 62 51  1  0  0  0  0
 63109  1  0  0  0  0
 64 49  1  0  0  0  0
 65 41  1  1  0  0  0
 66 40  1  0  0  0  0
 67 32  1  0  0  0  0
 68 47  1  1  0  0  0
 69 46  1  1  0  0  0
 70 42  1  1  0  0  0
 71 48  1  6  0  0  0
 72 58  1  0  0  0  0
 73 59  1  6  0  0  0
 74114  1  0  0  0  0
 75  2  2  0  0  0  0
 76  6  2  0  0  0  0
 77  4  2  0  0  0  0
 78  5  2  0  0  0  0
 79 11  2  0  0  0  0
 80 10  2  0  0  0  0
 81 14  2  0  0  0  0
 82 13  2  0  0  0  0
 83 12  2  0  0  0  0
 84 15  2  0  0  0  0
 85 19  2  0  0  0  0
 86 18  2  0  0  0  0
 87 16  2  0  0  0  0
 88 17  2  0  0  0  0
 89 21  2  0  0  0  0
 90 23  2  0  0  0  0
 91 20  2  0  0  0  0
 92 22  2  0  0  0  0
 93 24  2  0  0  0  0
 94 25  2  0  0  0  0
 52 95  1  0  0  0  0
 55 96  1  0  0  0  0
 56 97  1  0  0  0  0
 98 49  2  0  0  0  0
 99 57  2  0  0  0  0
 54100  1  0  0  0  0
 53101  1  0  0  0  0
  1102  1  0  0  0  0
103 61  2  0  0  0  0
104 62  2  0  0  0  0
105 63  2  0  0  0  0
106 72  2  0  0  0  0
107 74  2  0  0  0  0
 60108  1  0  0  0  0
109 64  1  0  0  0  0
 36110  1  0  0  0  0
 37111  1  0  0  0  0
 38112  1  0  0  0  0
113 61  1  0  0  0  0
114108  1  0  0  0  0
115 95  1  0  0  0  0
116 57  1  0  0  0  0
117133  2  0  0  0  0
118 62  1  0  0  0  0
119 74  1  0  0  0  0
120 97  1  0  0  0  0
121 96  1  0  0  0  0
 28122  1  0  0  0  0
 33123  1  0  0  0  0
124137  1  0  0  0  0
125115  2  0  0  0  0
126115  1  0  0  0  0
127152  1  0  0  0  0
128155  1  0  0  0  0
129153  1  0  0  0  0
130154  1  0  0  0  0
131150  1  0  0  0  0
132151  1  0  0  0  0
133125  1  0  0  0  0
134126  2  0  0  0  0
102135  1  6  0  0  0
136117  1  0  0  0  0
137 72  1  0  0  0  0
138123  1  0  0  0  0
139122  1  0  0  0  0
140100  1  0  0  0  0
141101  1  0  0  0  0
 65142  1  0  0  0  0
 69143  1  0  0  0  0
 71144  1  0  0  0  0
 68145  1  0  0  0  0
 70146  1  0  0  0  0
 73147  1  0  0  0  0
 67148  1  1  0  0  0
 66149  1  1  0  0  0
150177  1  0  0  0  0
151173  1  0  0  0  0
152176  1  0  0  0  0
153174  1  0  0  0  0
154178  1  0  0  0  0
155175  1  0  0  0  0
112156  1  0  0  0  0
102157  1  0  0  0  0
158110  1  0  0  0  0
159110  1  0  0  0  0
160111  1  0  0  0  0
161111  1  0  0  0  0
112162  1  1  0  0  0
163120  2  0  0  0  0
164121  2  0  0  0  0
165120  1  0  0  0  0
166121  1  0  0  0  0
167147  1  0  0  0  0
168144  1  0  0  0  0
169146  1  0  0  0  0
170143  1  0  0  0  0
171145  1  0  0  0  0
172142  1  0  0  0  0
173172  1  0  0  0  0
174170  1  0  0  0  0
175169  1  0  0  0  0
176171  1  0  0  0  0
177167  1  0  0  0  0
178168  1  0  0  0  0
179141  1  0  0  0  0
180140  1  0  0  0  0
181140  1  0  0  0  0
182141  1  0  0  0  0
183156  1  0  0  0  0
184164  1  0  0  0  0
185165  2  0  0  0  0
186163  1  0  0  0  0
187166  2  0  0  0  0
188187  1  0  0  0  0
189185  1  0  0  0  0
134117  1  0  0  0  0
184188  2  0  0  0  0
186189  2  0  0  0  0
M  END
> <From>
www.bindingDB.org

> <BindingDB Reactant_set_id>
51016965

> <Ligand InChI>
InChI=1S/C124H203N31O34/c1-14-70(10)101(154-112(176)83(42-26-32-54-130)143-121(185)100(69(8)9)152-110(174)81(40-24-30-52-128)139-106(170)78(37-21-27-49-125)136-96(162)63-133-105(169)92(64-156)150-104(168)72(12)135-123(187)102(73(13)158)155-118(182)88(58-76-43-45-77(159)46-44-76)146-115(179)87(137-95(161)62-131)57-74-33-17-15-18-34-74)122(186)134-71(11)103(167)138-79(38-22-28-50-126)107(171)141-84(47-48-97(163)164)109(173)151-93(65-157)119(183)145-85(55-66(2)3)113(177)148-90(61-98(165)166)117(181)140-82(41-25-31-53-129)111(175)153-99(68(6)7)120(184)142-80(39-23-29-51-127)108(172)147-89(60-94(132)160)116(180)144-86(56-67(4)5)114(178)149-91(124(188)189)59-75-35-19-16-20-36-75/h15-20,33-36,43-46,66-73,78-93,99-102,156-159H,14,21-32,37-42,47-65,125-131H2,1-13H3,(H2,132,160)(H,133,169)(H,134,186)(H,135,187)(H,136,162)(H,137,161)(H,138,167)(H,139,170)(H,140,181)(H,141,171)(H,142,184)(H,143,185)(H,144,180)(H,145,183)(H,146,179)(H,147,172)(H,148,177)(H,149,178)(H,150,168)(H,151,173)(H,152,174)(H,153,175)(H,154,176)(H,155,182)(H,163,164)(H,165,166)(H,188,189)/t70-,71-,72-,73+,78-,79-,80-,81-,82-,83-,84-,85-,86-,87-,88-,89-,90-,91-,92-,93-,99-,100-,101-,102-/m0/s1

> <Ligand InChI Key>
UDGZBBHEGKQNQU-JNVWVPGISA-N

> <BindingDB MonomerID>
50416566

> <BindingDB Ligand Name>
CHEMBL1215815

> <Target Name>
DNA repair protein RAD51 homolog 1

> <Target Source Organism According to Curator or DataSource>
Homo sapiens

> <Ki (nM)>
 6000

> <IC50 (nM)>


> <Kd (nM)>


> <EC50 (nM)>


> <kon (M-1-s-1)>


> <koff (s-1)>


> <pH>


> <Temp C>


> <Curation/DataSource>
ChEMBL

> <Article DOI>
10.1021/jm1002974

> <BindingDB Entry DOI>
10.7270/Q2NG4RV5

> <PMID>
20684611

> <PubChem AID>


> <Patent Number>


> <Authors>
Nomme, J; Renodon-Corniere, A; Asanomi, Y; Sakaguchi, K; Stasiak, AZ; Stasiak, A; Norden, B; Tran, V; Takahashi, M

> <Date of publication>
8/5/2010

> <Date in BindingDB>
5/22/2013

> <Institution>
Centre National de la Recherche Scientifique & Universite de Nantes

> <Link to Ligand in BindingDB>
http://www.bindingdb.org/bind/chemsearch/marvin/MolStructure.jsp?monomerid=50416566

> <Link to Ligand-Target Pair in BindingDB>
http://www.bindingdb.org/jsp/dbsearch/PrimarySearch_ki.jsp?energyterm=kJ/mole&tag=pol&polymerid=4676&target=DNA+repair+protein+RAD51+homolog+1&column=ki&startPg=0&Increment=50&submit=Search

> <Link to Ligand-Target Pair in BindingDB>
http://www.bindingdb.org/jsp/dbsearch/PrimarySearch_ki.jsp?energyterm=kJ/mole&tag=r21&monomerid=50416566&enzyme=DNA+repair+protein+RAD51+homolog+1&column=ki&startPg=0&Increment=50&submit=Search

> <Ligand HET ID in PDB>


> <PDB ID(s) for Ligand-Target Complex>


> <PubChem CID of Ligand>
46899803

> <PubChem SID of Ligand>
163365590

> <ChEBI ID of Ligand>


> <ChEMBL ID of Ligand>
CHEMBL1215815

> <DrugBank ID of Ligand>


> <IUPHAR_GRAC ID of Ligand>


> <KEGG ID of Ligand>


> <ZINC ID of Ligand>


> <Number of Protein Chains in Target (bigger than 1 implies a multichain complex)>
1

> <BindingDB Target Chain Sequence>
MAMQMQLEANADTSVEEESFGPQPISRLEQCGINANDVKKLEEAGFHTVEAVAYAPKKELINIKGISEAKADKILAEAAKLVPMGFTTATEFHQRRSEIIQITTGSKELDKLLQGGIETGSITEMFGEFRTGKTQICHTLAVTCQLPIDRGGGEGKAMYIDTEGTFRPERLLAVAERYGLSGSDVLDNVAYARAFNTDHQTQLLYQASAMMVESRYALLIVDSATALYRTDYSGRGELSARQMHLARFLRMLLRLADEFGVAVVITNQVVAQVDGAAMFAADPKKPIGGNIIAHASTTRLYLRKGRGETRICKIYDSPCLPEAEAMFAINADGVGDAKD

> <PDB ID(s) of Target Chain>
1N0W,5JZC,5NP7,5NWL,8BQ2,8BR2,8BSC

> <UniProt (SwissProt) Recommended Name of Target Chain>
DNA repair protein RAD51 homolog 1

> <UniProt (SwissProt) Entry Name of Target Chain>
RAD51_HUMAN

> <UniProt (SwissProt) Primary ID of Target Chain>
Q06609

> <UniProt (SwissProt) Secondary ID(s) of Target Chain>
B0FXP0 B2R8T6 Q6FHX9 Q6ZNA8 Q9BV60

> <UniProt (SwissProt) Alternative ID(s) of Target Chain>


> <UniProt (TrEMBL) Submitted Name of Target Chain>


> <UniProt (TrEMBL) Entry Name of Target Chain>


> <UniProt (TrEMBL) Primary ID of Target Chain>


> <UniProt (TrEMBL) Secondary ID(s) of Target Chain>


> <UniProt (TrEMBL) Alternative ID(s) of Target Chain>


$$$$

  Mrv0541 11241415252D          

187189  0  0  0  0            999 V2000
  -10.9324   -2.8113    0.0000 C   0  0  1  0  0  0  0  0  0  0  0  0
  -10.2109   -3.1992    0.0000 C   0  0  0  0  0  0  0  0  0  0  0  0
  -11.6416   -3.2493    0.0000 N   0  0  0  0  0  0  0  0  0  0  0  0
    2.6653   -2.7404    0.0000 C   0  0  0  0  0  0  0  0  0  0  0  0
    6.9616   -2.5819    0.0000 C   0  0  0  0  0  0  0  0  0  0  0  0
   24.1340   -1.9729    0.0000 C   0  0  0  0  0  0  0  0  0  0  0  0
    1.2346   -2.7863    0.0000 N   0  0  0  0  0  0  0  0  0  0  0  0
   22.7034   -2.0230    0.0000 N   0  0  0  0  0  0  0  0  0  0  0  0
    5.5267   -2.6361    0.0000 N   0  0  0  0  0  0  0  0  0  0  0  0
  -12.3632   -2.8613    0.0000 C   0  0  0  0  0  0  0  0  0  0  0  0
   15.5458   -2.2774    0.0000 C   0  0  0  0  0  0  0  0  0  0  0  0
   21.9859   -1.6392    0.0000 C   0  0  0  0  0  0  0  0  0  0  0  0
    4.8093   -2.2482    0.0000 C   0  0  0  0  0  0  0  0  0  0  0  0
    0.5130   -2.3984    0.0000 C   0  0  0  0  0  0  0  0  0  0  0  0
   28.4303   -1.8227    0.0000 C   0  0  0  0  0  0  0  0  0  0  0  0
   19.8419   -2.1273    0.0000 C   0  0  0  0  0  0  0  0  0  0  0  0
   17.6896   -1.7852    0.0000 C   0  0  0  0  0  0  0  0  0  0  0  0
   30.5700   -1.3306    0.0000 C   0  0  0  0  0  0  0  0  0  0  0  0
  -14.5029   -3.3494    0.0000 C   0  0  0  0  0  0  0  0  0  0  0  0
   13.3976   -1.9438    0.0000 C   0  0  0  0  0  0  0  0  0  0  0  0
   -8.0711   -2.7071    0.0000 C   0  0  0  0  0  0  0  0  0  0  0  0
   26.2780   -1.4849    0.0000 C   0  0  0  0  0  0  0  0  0  0  0  0
    9.1014   -2.0980    0.0000 C   0  0  0  0  0  0  0  0  0  0  0  0
   11.2578   -2.4318    0.0000 C   0  0  0  0  0  0  0  0  0  0  0  0
   -1.6267   -2.8906    0.0000 C   0  0  0  0  0  0  0  0  0  0  0  0
   14.1150   -2.3317    0.0000 N   0  0  0  0  0  0  0  0  0  0  0  0
   -7.3536   -3.0950    0.0000 N   0  0  0  0  0  0  0  0  0  0  0  0
   14.8283   -1.8895    0.0000 C   0  0  1  0  0  0  0  0  0  0  0  0
   18.4113   -2.1773    0.0000 N   0  0  0  0  0  0  0  0  0  0  0  0
   16.2590   -1.8395    0.0000 N   0  0  0  0  0  0  0  0  0  0  0  0
   26.9954   -1.8728    0.0000 N   0  0  0  0  0  0  0  0  0  0  0  0
  -13.7939   -2.9073    0.0000 N   0  0  0  0  0  0  0  0  0  0  0  0
   -9.4976   -2.7571    0.0000 N   0  0  0  0  0  0  0  0  0  0  0  0
   -6.6446   -2.6528    0.0000 C   0  0  2  0  0  0  0  0  0  0  0  0
   29.1393   -1.3807    0.0000 N   0  0  0  0  0  0  0  0  0  0  0  0
    1.9479   -2.3525    0.0000 C   0  0  1  0  0  0  0  0  0  0  0  0
   23.4166   -1.5850    0.0000 C   0  0  1  0  0  0  0  0  0  0  0  0
    6.2441   -2.1940    0.0000 C   0  0  1  0  0  0  0  0  0  0  0  0
   31.2916   -1.7185    0.0000 N   0  0  0  0  0  0  0  0  0  0  0  0
    7.6707   -2.1440    0.0000 N   0  0  0  0  0  0  0  0  0  0  0  0
    3.3786   -2.3025    0.0000 N   0  0  0  0  0  0  0  0  0  0  0  0
   24.8515   -1.5349    0.0000 N   0  0  0  0  0  0  0  0  0  0  0  0
   19.1204   -1.7394    0.0000 C   0  0  1  0  0  0  0  0  0  0  0  0
   27.7087   -1.4348    0.0000 C   0  0  1  0  0  0  0  0  0  0  0  0
   11.9669   -1.9938    0.0000 N   0  0  0  0  0  0  0  0  0  0  0  0
   20.5552   -1.6893    0.0000 N   0  0  0  0  0  0  0  0  0  0  0  0
   -0.9135   -2.4484    0.0000 N   0  0  0  0  0  0  0  0  0  0  0  0
    9.8230   -2.4859    0.0000 N   0  0  0  0  0  0  0  0  0  0  0  0
   -5.9230   -3.0407    0.0000 C   0  0  0  0  0  0  0  0  0  0  0  0
  -13.0722   -3.2952    0.0000 C   0  0  1  0  0  0  0  0  0  0  0  0
   27.6837   -0.5964    0.0000 C   0  0  0  0  0  0  0  0  0  0  0  0
   19.0995   -0.9052    0.0000 C   0  0  0  0  0  0  0  0  0  0  0  0
   16.9764   -2.2274    0.0000 C   0  0  1  0  0  0  0  0  0  0  0  0
   29.8568   -1.7686    0.0000 C   0  0  1  0  0  0  0  0  0  0  0  0
  -11.0868   -4.9970    0.0000 N   0  0  0  0  0  0  0  0  0  0  0  0
  -15.2287   -2.9573    0.0000 C   0  0  1  0  0  0  0  0  0  0  0  0
   32.0049   -1.2806    0.0000 C   0  0  2  0  0  0  0  0  0  0  0  0
   32.7223   -1.6643    0.0000 C   0  0  0  0  0  0  0  0  0  0  0  0
  -15.9337   -3.3911    0.0000 N   0  0  0  0  0  0  0  0  0  0  0  0
  -12.3131   -4.5131    0.0000 C   0  0  0  0  0  0  0  0  0  0  0  0
   -3.0616   -2.9448    0.0000 N   0  0  0  0  0  0  0  0  0  0  0  0
   12.6843   -2.3817    0.0000 C   0  0  1  0  0  0  0  0  0  0  0  0
  -13.0514   -4.1169    0.0000 C   0  0  0  0  0  0  0  0  0  0  0  0
   28.3802   -0.1669    0.0000 C   0  0  0  0  0  0  0  0  0  0  0  0
  -12.3674   -5.3890    0.0000 N   0  0  0  0  0  0  0  0  0  0  0  0
   19.7919   -0.4713    0.0000 C   0  0  0  0  0  0  0  0  0  0  0  0
   -3.7790   -2.5569    0.0000 C   0  0  0  0  0  0  0  0  0  0  0  0
   -5.2097   -2.6070    0.0000 N   0  0  0  0  0  0  0  0  0  0  0  0
    4.0961   -2.6904    0.0000 C   0  0  1  0  0  0  0  0  0  0  0  0
    8.3881   -2.5319    0.0000 C   0  0  1  0  0  0  0  0  0  0  0  0
   -8.7801   -3.1450    0.0000 C   0  0  1  0  0  0  0  0  0  0  0  0
   21.2726   -2.0772    0.0000 C   0  0  1  0  0  0  0  0  0  0  0  0
   -0.1919   -2.8363    0.0000 C   0  0  1  0  0  0  0  0  0  0  0  0
   25.5689   -1.9228    0.0000 C   0  0  1  0  0  0  0  0  0  0  0  0
   10.5320   -2.0397    0.0000 C   0  0  1  0  0  0  0  0  0  0  0  0
  -11.5831   -5.6560    0.0000 C   0  0  0  0  0  0  0  0  0  0  0  0
  -16.6552   -2.9990    0.0000 C   0  0  0  0  0  0  0  0  0  0  0  0
   -2.3483   -2.5027    0.0000 C   0  0  1  0  0  0  0  0  0  0  0  0
   13.4643   -4.4130    0.0000 C   0  0  0  0  0  0  0  0  0  0  0  0
  -11.5665   -4.3254    0.0000 C   0  0  0  0  0  0  0  0  0  0  0  0
  -10.1900   -4.0126    0.0000 O   0  0  0  0  0  0  0  0  0  0  0  0
    6.9824   -3.4036    0.0000 O   0  0  0  0  0  0  0  0  0  0  0  0
    2.6904   -3.5580    0.0000 O   0  0  0  0  0  0  0  0  0  0  0  0
   24.1590   -2.7905    0.0000 O   0  0  0  0  0  0  0  0  0  0  0  0
   15.5708   -3.0950    0.0000 O   0  0  0  0  0  0  0  0  0  0  0  0
  -12.3840   -2.0230    0.0000 O   0  0  0  0  0  0  0  0  0  0  0  0
    0.4922   -1.5642    0.0000 O   0  0  0  0  0  0  0  0  0  0  0  0
   21.9609   -0.8009    0.0000 O   0  0  0  0  0  0  0  0  0  0  0  0
    4.7843   -1.4098    0.0000 O   0  0  0  0  0  0  0  0  0  0  0  0
   30.5450   -0.4922    0.0000 O   0  0  0  0  0  0  0  0  0  0  0  0
   19.8628   -2.9448    0.0000 O   0  0  0  0  0  0  0  0  0  0  0  0
   17.6646   -0.9552    0.0000 O   0  0  0  0  0  0  0  0  0  0  0  0
   28.4553   -2.6361    0.0000 O   0  0  0  0  0  0  0  0  0  0  0  0
  -14.4779   -4.1669    0.0000 O   0  0  0  0  0  0  0  0  0  0  0  0
    9.0805   -1.2555    0.0000 O   0  0  0  0  0  0  0  0  0  0  0  0
   13.3725   -1.1054    0.0000 O   0  0  0  0  0  0  0  0  0  0  0  0
   11.2787   -3.2493    0.0000 O   0  0  0  0  0  0  0  0  0  0  0  0
   26.2529   -0.6507    0.0000 O   0  0  0  0  0  0  0  0  0  0  0  0
   -1.6059   -3.7081    0.0000 O   0  0  0  0  0  0  0  0  0  0  0  0
   -8.0919   -1.8687    0.0000 O   0  0  0  0  0  0  0  0  0  0  0  0
  -15.2495   -2.1231    0.0000 C   0  0  0  0  0  0  0  0  0  0  0  0
   31.9798   -0.4422    0.0000 C   0  0  0  0  0  0  0  0  0  0  0  0
   -5.8980   -3.8583    0.0000 O   0  0  0  0  0  0  0  0  0  0  0  0
   32.7474   -2.4859    0.0000 O   0  0  0  0  0  0  0  0  0  0  0  0
   29.8860   -2.5903    0.0000 C   0  0  0  0  0  0  0  0  0  0  0  0
   17.0056   -3.0449    0.0000 C   0  0  0  0  0  0  0  0  0  0  0  0
  -10.9534   -1.9729    0.0000 C   0  0  2  0  0  0  0  0  0  0  0  0
   29.1018   -0.5548    0.0000 O   0  0  0  0  0  0  0  0  0  0  0  0
   20.5135   -0.8634    0.0000 O   0  0  0  0  0  0  0  0  0  0  0  0
   -3.7998   -1.7185    0.0000 O   0  0  0  0  0  0  0  0  0  0  0  0
  -16.6845   -2.1773    0.0000 O   0  0  0  0  0  0  0  0  0  0  0  0
   14.2026   -4.8093    0.0000 O   0  0  0  0  0  0  0  0  0  0  0  0
   12.7093   -3.1992    0.0000 C   0  0  0  0  0  0  0  0  0  0  0  0
   -4.4881   -2.9949    0.0000 C   0  0  0  0  0  0  0  0  0  0  0  0
   23.3916   -0.7466    0.0000 C   0  0  0  0  0  0  0  0  0  0  0  0
    1.9187   -1.5141    0.0000 C   0  0  0  0  0  0  0  0  0  0  0  0
    6.2149   -1.3597    0.0000 C   0  0  2  0  0  0  0  0  0  0  0  0
   28.3594    0.6674    0.0000 N   0  0  0  0  0  0  0  0  0  0  0  0
   13.4435   -3.5955    0.0000 C   0  0  0  0  0  0  0  0  0  0  0  0
   33.4356   -1.2305    0.0000 O   0  0  0  0  0  0  0  0  0  0  0  0
   19.7710    0.3629    0.0000 O   0  0  0  0  0  0  0  0  0  0  0  0
   12.7719   -4.8385    0.0000 O   0  0  0  0  0  0  0  0  0  0  0  0
   32.6765   -0.0125    0.0000 C   0  0  0  0  0  0  0  0  0  0  0  0
  -14.5530   -1.6976    0.0000 C   0  0  0  0  0  0  0  0  0  0  0  0
   14.8033   -1.0553    0.0000 C   0  0  0  0  0  0  0  0  0  0  0  0
   -6.6696   -1.8227    0.0000 C   0  0  0  0  0  0  0  0  0  0  0  0
  -18.0901   -3.0490    0.0000 N   0  0  0  0  0  0  0  0  0  0  0  0
   -1.0303    0.8634    0.0000 N   0  0  0  0  0  0  0  0  0  0  0  0
    5.6393   -5.9313    0.0000 N   0  0  0  0  0  0  0  0  0  0  0  0
    1.3472   -6.0857    0.0000 N   0  0  0  0  0  0  0  0  0  0  0  0
   27.1081   -5.1680    0.0000 N   0  0  0  0  0  0  0  0  0  0  0  0
   22.8160   -5.3182    0.0000 N   0  0  0  0  0  0  0  0  0  0  0  0
   11.8543    1.3181    0.0000 N   0  0  0  0  0  0  0  0  0  0  0  0
  -10.2567   -1.5433    0.0000 O   0  0  0  0  0  0  0  0  0  0  0  0
  -17.3685   -3.4370    0.0000 C   0  0  0  0  0  0  0  0  0  0  0  0
   -7.3996   -1.4223    0.0000 O   0  0  0  0  0  0  0  0  0  0  0  0
   14.0692   -0.6590    0.0000 O   0  0  0  0  0  0  0  0  0  0  0  0
   30.6201   -2.9865    0.0000 C   0  0  0  0  0  0  0  0  0  0  0  0
   17.7397   -3.4412    0.0000 C   0  0  0  0  0  0  0  0  0  0  0  0
    4.1252   -3.5037    0.0000 C   0  0  0  0  0  0  0  0  0  0  0  0
   10.5112   -1.2096    0.0000 C   0  0  0  0  0  0  0  0  0  0  0  0
   25.5897   -2.7362    0.0000 C   0  0  0  0  0  0  0  0  0  0  0  0
   -0.1710   -3.6581    0.0000 C   0  0  0  0  0  0  0  0  0  0  0  0
   21.2977   -2.8906    0.0000 C   0  0  0  0  0  0  0  0  0  0  0  0
   -2.3733   -1.6643    0.0000 C   0  0  0  0  0  0  0  0  0  0  0  0
   -8.7551   -3.9625    0.0000 C   0  0  0  0  0  0  0  0  0  0  0  0
    8.4132   -3.3494    0.0000 C   0  0  0  0  0  0  0  0  0  0  0  0
   11.8751    0.4880    0.0000 C   0  0  0  0  0  0  0  0  0  0  0  0
   27.0871   -4.3504    0.0000 C   0  0  0  0  0  0  0  0  0  0  0  0
   -1.0053    0.0250    0.0000 C   0  0  0  0  0  0  0  0  0  0  0  0
    5.6185   -5.1137    0.0000 C   0  0  0  0  0  0  0  0  0  0  0  0
    1.3222   -5.2681    0.0000 C   0  0  0  0  0  0  0  0  0  0  0  0
   22.7910   -4.5006    0.0000 C   0  0  0  0  0  0  0  0  0  0  0  0
    5.4808   -0.9635    0.0000 C   0  0  0  0  0  0  0  0  0  0  0  0
  -11.6874   -1.5767    0.0000 C   0  0  0  0  0  0  0  0  0  0  0  0
    1.1846   -1.1179    0.0000 C   0  0  0  0  0  0  0  0  0  0  0  0
    2.6153   -1.0845    0.0000 C   0  0  0  0  0  0  0  0  0  0  0  0
   22.6574   -0.3504    0.0000 C   0  0  0  0  0  0  0  0  0  0  0  0
   24.0839   -0.3211    0.0000 C   0  0  0  0  0  0  0  0  0  0  0  0
    6.9116   -0.9302    0.0000 C   0  0  0  0  0  0  0  0  0  0  0  0
   33.4064   -0.4004    0.0000 C   0  0  0  0  0  0  0  0  0  0  0  0
  -13.8230   -2.0772    0.0000 C   0  0  0  0  0  0  0  0  0  0  0  0
   32.6389    0.8051    0.0000 C   0  0  0  0  0  0  0  0  0  0  0  0
  -14.5863   -0.8717    0.0000 C   0  0  0  0  0  0  0  0  0  0  0  0
    0.5631   -4.0543    0.0000 C   0  0  0  0  0  0  0  0  0  0  0  0
    4.8594   -3.9000    0.0000 C   0  0  0  0  0  0  0  0  0  0  0  0
   -1.6768   -1.2388    0.0000 C   0  0  0  0  0  0  0  0  0  0  0  0
   11.2077   -0.7800    0.0000 C   0  0  0  0  0  0  0  0  0  0  0  0
   26.3280   -3.1366    0.0000 C   0  0  0  0  0  0  0  0  0  0  0  0
   22.0318   -3.2868    0.0000 C   0  0  0  0  0  0  0  0  0  0  0  0
   -1.6976   -0.4004    0.0000 C   0  0  0  0  0  0  0  0  0  0  0  0
   11.1786    0.0584    0.0000 C   0  0  0  0  0  0  0  0  0  0  0  0
    4.8802   -4.7175    0.0000 C   0  0  0  0  0  0  0  0  0  0  0  0
   22.0568   -4.1044    0.0000 C   0  0  0  0  0  0  0  0  0  0  0  0
   26.3489   -3.9542    0.0000 C   0  0  0  0  0  0  0  0  0  0  0  0
    0.5881   -4.8719    0.0000 C   0  0  0  0  0  0  0  0  0  0  0  0
   17.7606   -4.2628    0.0000 C   0  0  0  0  0  0  0  0  0  0  0  0
   30.6451   -3.8040    0.0000 C   0  0  0  0  0  0  0  0  0  0  0  0
   31.3292   -2.5444    0.0000 C   0  0  0  0  0  0  0  0  0  0  0  0
   18.4529   -3.0032    0.0000 C   0  0  0  0  0  0  0  0  0  0  0  0
    5.4600   -0.1460    0.0000 C   0  0  0  0  0  0  0  0  0  0  0  0
  -13.1265   -1.6350    0.0000 C   0  0  0  0  0  0  0  0  0  0  0  0
   33.3397    1.2513    0.0000 C   0  0  0  0  0  0  0  0  0  0  0  0
   34.1030    0.0458    0.0000 C   0  0  0  0  0  0  0  0  0  0  0  0
  -13.8898   -0.4297    0.0000 C   0  0  0  0  0  0  0  0  0  0  0  0
  -13.1598   -0.8134    0.0000 C   0  0  0  0  0  0  0  0  0  0  0  0
   34.0696    0.8676    0.0000 C   0  0  0  0  0  0  0  0  0  0  0  0
  1  2  1  0  0  0  0
  1  3  1  1  0  0  0
 36  4  1  0  0  0  0
 38  5  1  0  0  0  0
 37  6  1  0  0  0  0
  7 14  1  0  0  0  0
  8 12  1  0  0  0  0
  9 13  1  0  0  0  0
 10  3  1  0  0  0  0
 28 11  1  0  0  0  0
 72 12  1  0  0  0  0
 69 13  1  0  0  0  0
 73 14  1  0  0  0  0
 44 15  1  0  0  0  0
 43 16  1  0  0  0  0
 53 17  1  0  0  0  0
 54 18  1  0  0  0  0
 19 32  1  0  0  0  0
 62 20  1  0  0  0  0
 71 21  1  0  0  0  0
 74 22  1  0  0  0  0
 70 23  1  0  0  0  0
 75 24  1  0  0  0  0
 78 25  1  0  0  0  0
 26 20  1  0  0  0  0
 27 21  1  0  0  0  0
 28 26  1  1  0  0  0
 29 17  1  0  0  0  0
 30 11  1  0  0  0  0
 31 22  1  0  0  0  0
 50 32  1  6  0  0  0
 33  2  1  0  0  0  0
 34 27  1  1  0  0  0
 35 15  1  0  0  0  0
 36  7  1  1  0  0  0
 37  8  1  1  0  0  0
 38  9  1  1  0  0  0
 39 18  1  0  0  0  0
 40  5  1  0  0  0  0
 41  4  1  0  0  0  0
 42  6  1  0  0  0  0
 43 29  1  1  0  0  0
 44 31  1  1  0  0  0
 45 24  1  0  0  0  0
 46 16  1  0  0  0  0
 47 25  1  0  0  0  0
 48 23  1  0  0  0  0
 34 49  1  0  0  0  0
 50 10  1  0  0  0  0
 44 51  1  0  0  0  0
 43 52  1  0  0  0  0
 53 30  1  6  0  0  0
 54 35  1  6  0  0  0
 55 80  1  0  0  0  0
 56 19  1  0  0  0  0
 57 39  1  1  0  0  0
 57 58  1  0  0  0  0
 56 59  1  1  0  0  0
 60 63  1  0  0  0  0
 61 67  1  0  0  0  0
 62 45  1  6  0  0  0
 50 63  1  0  0  0  0
 64 51  1  0  0  0  0
 65 60  1  0  0  0  0
 66 52  1  0  0  0  0
 67114  1  0  0  0  0
 68 49  1  0  0  0  0
 69 41  1  6  0  0  0
 70 40  1  0  0  0  0
 71 33  1  0  0  0  0
 72 46  1  6  0  0  0
 73 47  1  6  0  0  0
 74 42  1  6  0  0  0
 75 48  1  1  0  0  0
 76 65  1  0  0  0  0
 77 59  1  0  0  0  0
 78 61  1  1  0  0  0
 79119  1  0  0  0  0
 80 60  2  0  0  0  0
 81  2  2  0  0  0  0
 82  5  2  0  0  0  0
 83  4  2  0  0  0  0
 84  6  2  0  0  0  0
 85 11  2  0  0  0  0
 86 10  2  0  0  0  0
 87 14  2  0  0  0  0
 88 12  2  0  0  0  0
 89 13  2  0  0  0  0
 90 18  2  0  0  0  0
 91 16  2  0  0  0  0
 92 17  2  0  0  0  0
 93 15  2  0  0  0  0
 94 19  2  0  0  0  0
 95 23  2  0  0  0  0
 96 20  2  0  0  0  0
 97 24  2  0  0  0  0
 98 22  2  0  0  0  0
 99 25  2  0  0  0  0
100 21  2  0  0  0  0
 56101  1  0  0  0  0
 57102  1  0  0  0  0
103 49  2  0  0  0  0
104 58  2  0  0  0  0
 54105  1  0  0  0  0
 53106  1  0  0  0  0
  1107  1  0  0  0  0
108 64  2  0  0  0  0
109 66  2  0  0  0  0
110 67  2  0  0  0  0
111 77  2  0  0  0  0
112 79  2  0  0  0  0
 62113  1  0  0  0  0
114 68  1  0  0  0  0
 37115  1  0  0  0  0
 36116  1  0  0  0  0
 38117  1  0  0  0  0
118 64  1  0  0  0  0
119113  1  0  0  0  0
120 58  1  0  0  0  0
121 66  1  0  0  0  0
122 79  1  0  0  0  0
123102  1  0  0  0  0
124101  1  0  0  0  0
 28125  1  0  0  0  0
 34126  1  0  0  0  0
127135  1  0  0  0  0
128150  1  0  0  0  0
129151  1  0  0  0  0
130152  1  0  0  0  0
131149  1  0  0  0  0
132153  1  0  0  0  0
133148  1  0  0  0  0
107134  1  1  0  0  0
135 77  1  0  0  0  0
136126  1  0  0  0  0
137125  1  0  0  0  0
138105  1  0  0  0  0
139106  1  0  0  0  0
 69140  1  0  0  0  0
 75141  1  0  0  0  0
 74142  1  0  0  0  0
 73143  1  0  0  0  0
 72144  1  0  0  0  0
 78145  1  0  0  0  0
 71146  1  6  0  0  0
 70147  1  6  0  0  0
148172  1  0  0  0  0
149175  1  0  0  0  0
150171  1  0  0  0  0
151173  1  0  0  0  0
152176  1  0  0  0  0
153174  1  0  0  0  0
117154  1  0  0  0  0
107155  1  0  0  0  0
156116  1  0  0  0  0
157116  1  0  0  0  0
158115  1  0  0  0  0
159115  1  0  0  0  0
117160  1  6  0  0  0
161123  2  0  0  0  0
162124  2  0  0  0  0
163123  1  0  0  0  0
164124  1  0  0  0  0
165143  1  0  0  0  0
166140  1  0  0  0  0
167145  1  0  0  0  0
168141  1  0  0  0  0
169142  1  0  0  0  0
170144  1  0  0  0  0
171167  1  0  0  0  0
172168  1  0  0  0  0
173166  1  0  0  0  0
174170  1  0  0  0  0
175169  1  0  0  0  0
176165  1  0  0  0  0
177139  1  0  0  0  0
178138  1  0  0  0  0
179138  1  0  0  0  0
180139  1  0  0  0  0
181154  1  0  0  0  0
182162  1  0  0  0  0
183163  2  0  0  0  0
184161  1  0  0  0  0
185164  2  0  0  0  0
186185  1  0  0  0  0
187183  1  0  0  0  0
 55 76  2  0  0  0  0
182186  2  0  0  0  0
184187  2  0  0  0  0
M  END
> <From>
www.bindingDB.org

> <BindingDB Reactant_set_id>
51016964

> <Ligand InChI>
InChI=1S/C121H201N33O33/c1-14-68(10)98(153-109(174)80(42-26-32-50-127)142-118(183)97(67(8)9)151-107(172)78(40-24-30-48-125)138-103(168)75(37-21-27-45-122)135-93(160)60-131-102(167)89(61-155)149-101(166)70(12)134-120(185)99(71(13)157)154-115(180)85(55-74-59-130-63-132-74)145-112(177)84(136-92(159)58-128)53-72-33-17-15-18-34-72)119(184)133-69(11)100(165)137-76(38-22-28-46-123)104(169)140-81(43-44-94(161)162)106(171)150-90(62-156)116(181)144-82(51-64(2)3)110(175)147-87(57-95(163)164)114(179)139-79(41-25-31-49-126)108(173)152-96(66(6)7)117(182)141-77(39-23-29-47-124)105(170)146-86(56-91(129)158)113(178)143-83(52-65(4)5)111(176)148-88(121(186)187)54-73-35-19-16-20-36-73/h15-20,33-36,59,63-71,75-90,96-99,155-157H,14,21-32,37-58,60-62,122-128H2,1-13H3,(H2,129,158)(H,130,132)(H,131,167)(H,133,184)(H,134,185)(H,135,160)(H,136,159)(H,137,165)(H,138,168)(H,139,179)(H,140,169)(H,141,182)(H,142,183)(H,143,178)(H,144,181)(H,145,177)(H,146,170)(H,147,175)(H,148,176)(H,149,166)(H,150,171)(H,151,172)(H,152,173)(H,153,174)(H,154,180)(H,161,162)(H,163,164)(H,186,187)/t68-,69-,70-,71+,75-,76-,77-,78-,79-,80-,81-,82-,83-,84-,85-,86-,87-,88-,89-,90-,96-,97-,98-,99-/m0/s1

> <Ligand InChI Key>
JXEIUXCHCRAUMP-SRJRRBQKSA-N

> <BindingDB MonomerID>
50416564

> <BindingDB Ligand Name>
CHEMBL1215813

> <Target Name>
DNA repair protein RAD51 homolog 1

> <Target Source Organism According to Curator or DataSource>
Homo sapiens

> <Ki (nM)>
 10000

> <IC50 (nM)>


> <Kd (nM)>


> <EC50 (nM)>


> <kon (M-1-s-1)>


> <koff (s-1)>


> <pH>


> <Temp C>


> <Curation/DataSource>
ChEMBL

> <Article DOI>
10.1021/jm1002974

> <BindingDB Entry DOI>
10.7270/Q2NG4RV5

> <PMID>
20684611

> <PubChem AID>


> <Patent Number>


> <Authors>
Nomme, J; Renodon-Corniere, A; Asanomi, Y; Sakaguchi, K; Stasiak, AZ; Stasiak, A; Norden, B; Tran, V; Takahashi, M

> <Date of publication>
8/5/2010

> <Date in BindingDB>
5/22/2013

> <Institution>
Centre National de la Recherche Scientifique & Universite de Nantes

> <Link to Ligand in BindingDB>
http://www.bindingdb.org/bind/chemsearch/marvin/MolStructure.jsp?monomerid=50416564

> <Link to Ligand-Target Pair in BindingDB>
http://www.bindingdb.org/jsp/dbsearch/PrimarySearch_ki.jsp?energyterm=kJ/mole&tag=pol&polymerid=4676&target=DNA+repair+protein+RAD51+homolog+1&column=ki&startPg=0&Increment=50&submit=Search

> <Link to Ligand-Target Pair in BindingDB>
http://www.bindingdb.org/jsp/dbsearch/PrimarySearch_ki.jsp?energyterm=kJ/mole&tag=r21&monomerid=50416564&enzyme=DNA+repair+protein+RAD51+homolog+1&column=ki&startPg=0&Increment=50&submit=Search

> <Ligand HET ID in PDB>


> <PDB ID(s) for Ligand-Target Complex>


> <PubChem CID of Ligand>
49864242

> <PubChem SID of Ligand>
163365588

> <ChEBI ID of Ligand>


> <ChEMBL ID of Ligand>
CHEMBL1215813

> <DrugBank ID of Ligand>


> <IUPHAR_GRAC ID of Ligand>


> <KEGG ID of Ligand>


> <ZINC ID of Ligand>


> <Number of Protein Chains in Target (bigger than 1 implies a multichain complex)>
1

> <BindingDB Target Chain Sequence>
MAMQMQLEANADTSVEEESFGPQPISRLEQCGINANDVKKLEEAGFHTVEAVAYAPKKELINIKGISEAKADKILAEAAKLVPMGFTTATEFHQRRSEIIQITTGSKELDKLLQGGIETGSITEMFGEFRTGKTQICHTLAVTCQLPIDRGGGEGKAMYIDTEGTFRPERLLAVAERYGLSGSDVLDNVAYARAFNTDHQTQLLYQASAMMVESRYALLIVDSATALYRTDYSGRGELSARQMHLARFLRMLLRLADEFGVAVVITNQVVAQVDGAAMFAADPKKPIGGNIIAHASTTRLYLRKGRGETRICKIYDSPCLPEAEAMFAINADGVGDAKD

> <PDB ID(s) of Target Chain>
1N0W,5JZC,5NP7,5NWL,8BQ2,8BR2,8BSC

> <UniProt (SwissProt) Recommended Name of Target Chain>
DNA repair protein RAD51 homolog 1

> <UniProt (SwissProt) Entry Name of Target Chain>
RAD51_HUMAN

> <UniProt (SwissProt) Primary ID of Target Chain>
Q06609

> <UniProt (SwissProt) Secondary ID(s) of Target Chain>
B0FXP0 B2R8T6 Q6FHX9 Q6ZNA8 Q9BV60

> <UniProt (SwissProt) Alternative ID(s) of Target Chain>


> <UniProt (TrEMBL) Submitted Name of Target Chain>


> <UniProt (TrEMBL) Entry Name of Target Chain>


> <UniProt (TrEMBL) Primary ID of Target Chain>


> <UniProt (TrEMBL) Secondary ID(s) of Target Chain>


> <UniProt (TrEMBL) Alternative ID(s) of Target Chain>


$$$$

  Mrv0541 11241415252D          

188190  0  0  0  0            999 V2000
    1.2958   -2.7000    0.0000 C   0  0  1  0  0  0  0  0  0  0  0  0
    2.0208   -2.2833    0.0000 C   0  0  0  0  0  0  0  0  0  0  0  0
    0.5917   -2.2917    0.0000 N   0  0  0  0  0  0  0  0  0  0  0  0
   14.9208   -2.1875    0.0000 C   0  0  0  0  0  0  0  0  0  0  0  0
   19.2208   -2.1583    0.0000 C   0  0  0  0  0  0  0  0  0  0  0  0
   36.4250   -2.0333    0.0000 C   0  0  0  0  0  0  0  0  0  0  0  0
   13.4875   -2.2000    0.0000 N   0  0  0  0  0  0  0  0  0  0  0  0
   34.9875   -2.0417    0.0000 N   0  0  0  0  0  0  0  0  0  0  0  0
   17.7875   -2.1667    0.0000 N   0  0  0  0  0  0  0  0  0  0  0  0
   -0.1375   -2.7125    0.0000 C   0  0  0  0  0  0  0  0  0  0  0  0
    4.1625   -2.6792    0.0000 C   0  0  0  0  0  0  0  0  0  0  0  0
   27.8208   -2.0958    0.0000 C   0  0  0  0  0  0  0  0  0  0  0  0
   34.2625   -2.4625    0.0000 C   0  0  0  0  0  0  0  0  0  0  0  0
   17.0625   -2.5875    0.0000 C   0  0  0  0  0  0  0  0  0  0  0  0
   12.7625   -2.6167    0.0000 C   0  0  0  0  0  0  0  0  0  0  0  0
   40.7208   -2.0000    0.0000 C   0  0  0  0  0  0  0  0  0  0  0  0
   32.1208   -2.0625    0.0000 C   0  0  0  0  0  0  0  0  0  0  0  0
   29.9625   -2.4917    0.0000 C   0  0  0  0  0  0  0  0  0  0  0  0
   42.8625   -2.4000    0.0000 C   0  0  0  0  0  0  0  0  0  0  0  0
   -2.2833   -2.3125    0.0000 C   0  0  0  0  0  0  0  0  0  0  0  0
    2.7292   -2.6875    0.0000 N   0  0  0  0  0  0  0  0  0  0  0  0
   25.6625   -2.5250    0.0000 C   0  0  0  0  0  0  0  0  0  0  0  0
   38.5625   -2.4292    0.0000 C   0  0  0  0  0  0  0  0  0  0  0  0
   21.3625   -2.5542    0.0000 C   0  0  0  0  0  0  0  0  0  0  0  0
   23.5208   -2.1250    0.0000 C   0  0  0  0  0  0  0  0  0  0  0  0
   10.6208   -2.2208    0.0000 C   0  0  0  0  0  0  0  0  0  0  0  0
    4.8875   -2.2625    0.0000 N   0  0  0  0  0  0  0  0  0  0  0  0
   26.3917   -2.1042    0.0000 N   0  0  0  0  0  0  0  0  0  0  0  0
    3.4542   -2.2708    0.0000 C   0  0  1  0  0  0  0  0  0  0  0  0
   27.0958   -2.5125    0.0000 C   0  0  1  0  0  0  0  0  0  0  0  0
   30.6875   -2.0750    0.0000 N   0  0  0  0  0  0  0  0  0  0  0  0
   28.5292   -2.5042    0.0000 N   0  0  0  0  0  0  0  0  0  0  0  0
   39.2875   -2.0125    0.0000 N   0  0  0  0  0  0  0  0  0  0  0  0
   -1.5667   -2.7208    0.0000 N   0  0  0  0  0  0  0  0  0  0  0  0
    5.5917   -2.6708    0.0000 C   0  0  2  0  0  0  0  0  0  0  0  0
   41.4250   -2.4083    0.0000 N   0  0  0  0  0  0  0  0  0  0  0  0
   14.2000   -2.6042    0.0000 C   0  0  1  0  0  0  0  0  0  0  0  0
   35.6958   -2.4500    0.0000 C   0  0  1  0  0  0  0  0  0  0  0  0
   18.4958   -2.5750    0.0000 C   0  0  1  0  0  0  0  0  0  0  0  0
   43.5917   -1.9833    0.0000 N   0  0  0  0  0  0  0  0  0  0  0  0
   19.9292   -2.5625    0.0000 N   0  0  0  0  0  0  0  0  0  0  0  0
   15.6292   -2.5958    0.0000 N   0  0  0  0  0  0  0  0  0  0  0  0
   37.1292   -2.4417    0.0000 N   0  0  0  0  0  0  0  0  0  0  0  0
   31.4000   -2.4833    0.0000 C   0  0  1  0  0  0  0  0  0  0  0  0
   39.9958   -2.4208    0.0000 C   0  0  1  0  0  0  0  0  0  0  0  0
   24.2292   -2.5333    0.0000 N   0  0  0  0  0  0  0  0  0  0  0  0
   32.8292   -2.4708    0.0000 N   0  0  0  0  0  0  0  0  0  0  0  0
   11.3292   -2.6292    0.0000 N   0  0  0  0  0  0  0  0  0  0  0  0
   22.0875   -2.1375    0.0000 N   0  0  0  0  0  0  0  0  0  0  0  0
    6.3208   -2.2500    0.0000 C   0  0  0  0  0  0  0  0  0  0  0  0
   -0.8458   -2.3042    0.0000 C   0  0  1  0  0  0  0  0  0  0  0  0
   39.9958   -3.2375    0.0000 C   0  0  0  0  0  0  0  0  0  0  0  0
   31.4000   -3.3000    0.0000 C   0  0  0  0  0  0  0  0  0  0  0  0
   29.2542   -2.0833    0.0000 C   0  0  1  0  0  0  0  0  0  0  0  0
   42.1542   -1.9917    0.0000 C   0  0  1  0  0  0  0  0  0  0  0  0
    1.1292   -0.6417    0.0000 N   0  0  0  0  0  0  0  0  0  0  0  0
   -3.0042   -2.7292    0.0000 C   0  0  1  0  0  0  0  0  0  0  0  0
   44.2958   -2.3875    0.0000 C   0  0  2  0  0  0  0  0  0  0  0  0
   45.0250   -1.9708    0.0000 C   0  0  0  0  0  0  0  0  0  0  0  0
   -3.7167   -2.3167    0.0000 N   0  0  0  0  0  0  0  0  0  0  0  0
   -0.1375   -1.0583    0.0000 C   0  0  0  0  0  0  0  0  0  0  0  0
    9.1917   -2.2292    0.0000 N   0  0  0  0  0  0  0  0  0  0  0  0
   24.9542   -2.1167    0.0000 C   0  0  1  0  0  0  0  0  0  0  0  0
   -0.8458   -1.4625    0.0000 C   0  0  0  0  0  0  0  0  0  0  0  0
   40.7208   -3.6542    0.0000 C   0  0  0  0  0  0  0  0  0  0  0  0
   -0.1417   -0.2208    0.0000 N   0  0  0  0  0  0  0  0  0  0  0  0
   32.1208   -3.7167    0.0000 C   0  0  0  0  0  0  0  0  0  0  0  0
    8.4625   -2.6458    0.0000 C   0  0  0  0  0  0  0  0  0  0  0  0
    7.0292   -2.6583    0.0000 N   0  0  0  0  0  0  0  0  0  0  0  0
   16.3542   -2.1792    0.0000 C   0  0  1  0  0  0  0  0  0  0  0  0
   20.6542   -2.1458    0.0000 C   0  0  1  0  0  0  0  0  0  0  0  0
   33.5542   -2.0542    0.0000 C   0  0  1  0  0  0  0  0  0  0  0  0
   12.0542   -2.2083    0.0000 C   0  0  1  0  0  0  0  0  0  0  0  0
   37.8542   -2.0208    0.0000 C   0  0  1  0  0  0  0  0  0  0  0  0
   22.7958   -2.5458    0.0000 C   0  0  1  0  0  0  0  0  0  0  0  0
    0.6458    0.0292    0.0000 C   0  0  0  0  0  0  0  0  0  0  0  0
   -4.4333   -2.7292    0.0000 C   0  0  0  0  0  0  0  0  0  0  0  0
    9.8958   -2.6375    0.0000 C   0  0  1  0  0  0  0  0  0  0  0  0
   25.6625   -0.0292    0.0000 C   0  0  0  0  0  0  0  0  0  0  0  0
    0.6375   -1.3042    0.0000 C   0  0  0  0  0  0  0  0  0  0  0  0
    2.0208   -1.4417    0.0000 O   0  0  0  0  0  0  0  0  0  0  0  0
   19.2208   -1.3167    0.0000 O   0  0  0  0  0  0  0  0  0  0  0  0
   14.9208   -1.3500    0.0000 O   0  0  0  0  0  0  0  0  0  0  0  0
   36.4250   -1.1917    0.0000 O   0  0  0  0  0  0  0  0  0  0  0  0
    4.1625   -3.5000    0.0000 O   0  0  0  0  0  0  0  0  0  0  0  0
   27.8208   -1.2542    0.0000 O   0  0  0  0  0  0  0  0  0  0  0  0
   -0.1375   -3.5292    0.0000 O   0  0  0  0  0  0  0  0  0  0  0  0
   12.7625   -3.4333    0.0000 O   0  0  0  0  0  0  0  0  0  0  0  0
   34.2625   -3.2792    0.0000 O   0  0  0  0  0  0  0  0  0  0  0  0
   17.0625   -3.4042    0.0000 O   0  0  0  0  0  0  0  0  0  0  0  0
   42.8625   -3.2167    0.0000 O   0  0  0  0  0  0  0  0  0  0  0  0
   32.1208   -1.2250    0.0000 O   0  0  0  0  0  0  0  0  0  0  0  0
   29.9625   -3.3125    0.0000 O   0  0  0  0  0  0  0  0  0  0  0  0
   40.7208   -1.1625    0.0000 O   0  0  0  0  0  0  0  0  0  0  0  0
   -2.2833   -1.4750    0.0000 O   0  0  0  0  0  0  0  0  0  0  0  0
   38.5625   -3.2500    0.0000 O   0  0  0  0  0  0  0  0  0  0  0  0
   23.5208   -1.2875    0.0000 O   0  0  0  0  0  0  0  0  0  0  0  0
   25.6625   -3.3417    0.0000 O   0  0  0  0  0  0  0  0  0  0  0  0
   21.3625   -3.3750    0.0000 O   0  0  0  0  0  0  0  0  0  0  0  0
   10.6208   -1.3792    0.0000 O   0  0  0  0  0  0  0  0  0  0  0  0
   -3.0042   -3.5500    0.0000 C   0  0  0  0  0  0  0  0  0  0  0  0
   44.2958   -3.2083    0.0000 C   0  0  0  0  0  0  0  0  0  0  0  0
    6.3208   -1.4125    0.0000 O   0  0  0  0  0  0  0  0  0  0  0  0
   45.0250   -1.1292    0.0000 O   0  0  0  0  0  0  0  0  0  0  0  0
   42.1542   -1.1583    0.0000 C   0  0  0  0  0  0  0  0  0  0  0  0
   29.2542   -1.2458    0.0000 C   0  0  0  0  0  0  0  0  0  0  0  0
    1.2958   -3.5167    0.0000 C   0  0  2  0  0  0  0  0  0  0  0  0
   40.7208   -4.4750    0.0000 O   0  0  0  0  0  0  0  0  0  0  0  0
   32.1208   -4.5375    0.0000 O   0  0  0  0  0  0  0  0  0  0  0  0
    8.4625   -3.4667    0.0000 O   0  0  0  0  0  0  0  0  0  0  0  0
   -4.4333   -3.5583    0.0000 O   0  0  0  0  0  0  0  0  0  0  0  0
   26.3708    0.3792    0.0000 O   0  0  0  0  0  0  0  0  0  0  0  0
   24.9542   -1.2750    0.0000 C   0  0  0  0  0  0  0  0  0  0  0  0
    7.7583   -2.2417    0.0000 C   0  0  0  0  0  0  0  0  0  0  0  0
   35.6958   -3.2708    0.0000 C   0  0  0  0  0  0  0  0  0  0  0  0
   14.2000   -3.4250    0.0000 C   0  0  0  0  0  0  0  0  0  0  0  0
   18.4958   -3.3917    0.0000 C   0  0  2  0  0  0  0  0  0  0  0  0
   41.4458   -3.2375    0.0000 N   0  0  0  0  0  0  0  0  0  0  0  0
   25.6625   -0.8667    0.0000 C   0  0  0  0  0  0  0  0  0  0  0  0
   45.7292   -2.3792    0.0000 O   0  0  0  0  0  0  0  0  0  0  0  0
   32.8458   -3.3000    0.0000 O   0  0  0  0  0  0  0  0  0  0  0  0
   24.9375    0.3875    0.0000 O   0  0  0  0  0  0  0  0  0  0  0  0
   45.0250   -3.6250    0.0000 C   0  0  0  0  0  0  0  0  0  0  0  0
   -2.2792   -3.9667    0.0000 C   0  0  0  0  0  0  0  0  0  0  0  0
    3.4542   -1.4333    0.0000 C   0  0  0  0  0  0  0  0  0  0  0  0
   27.0958   -3.3333    0.0000 C   0  0  0  0  0  0  0  0  0  0  0  0
    5.5917   -3.4875    0.0000 C   0  0  0  0  0  0  0  0  0  0  0  0
   -5.8708   -2.7333    0.0000 N   0  0  0  0  0  0  0  0  0  0  0  0
   11.3458   -5.9292    0.0000 N   0  0  0  0  0  0  0  0  0  0  0  0
   17.7708    1.1500    0.0000 N   0  0  0  0  0  0  0  0  0  0  0  0
   13.4708    1.1208    0.0000 N   0  0  0  0  0  0  0  0  0  0  0  0
   39.2708    1.3083    0.0000 N   0  0  0  0  0  0  0  0  0  0  0  0
   34.9708    1.2750    0.0000 N   0  0  0  0  0  0  0  0  0  0  0  0
   24.2458   -5.8375    0.0000 N   0  0  0  0  0  0  0  0  0  0  0  0
    2.0208   -3.9375    0.0000 O   0  0  0  0  0  0  0  0  0  0  0  0
   -5.1500   -2.3167    0.0000 C   0  0  0  0  0  0  0  0  0  0  0  0
    4.1625   -1.0250    0.0000 O   0  0  0  0  0  0  0  0  0  0  0  0
    6.3208   -3.9042    0.0000 O   0  0  0  0  0  0  0  0  0  0  0  0
   27.8208   -3.7500    0.0000 O   0  0  0  0  0  0  0  0  0  0  0  0
   42.8625   -0.7458    0.0000 C   0  0  0  0  0  0  0  0  0  0  0  0
   29.9625   -0.8375    0.0000 C   0  0  0  0  0  0  0  0  0  0  0  0
   16.3542   -1.3375    0.0000 C   0  0  0  0  0  0  0  0  0  0  0  0
   22.7958   -3.3625    0.0000 C   0  0  0  0  0  0  0  0  0  0  0  0
   37.8542   -1.1833    0.0000 C   0  0  0  0  0  0  0  0  0  0  0  0
   12.0542   -1.3708    0.0000 C   0  0  0  0  0  0  0  0  0  0  0  0
   33.5542   -1.2125    0.0000 C   0  0  0  0  0  0  0  0  0  0  0  0
    9.8958   -3.4583    0.0000 C   0  0  0  0  0  0  0  0  0  0  0  0
   20.6542   -1.3083    0.0000 C   0  0  0  0  0  0  0  0  0  0  0  0
   24.2458   -5.0167    0.0000 C   0  0  0  0  0  0  0  0  0  0  0  0
   39.2708    0.4708    0.0000 C   0  0  0  0  0  0  0  0  0  0  0  0
   11.3458   -5.1125    0.0000 C   0  0  0  0  0  0  0  0  0  0  0  0
   17.7708    0.3167    0.0000 C   0  0  0  0  0  0  0  0  0  0  0  0
   13.4708    0.2833    0.0000 C   0  0  0  0  0  0  0  0  0  0  0  0
   34.9708    0.4417    0.0000 C   0  0  0  0  0  0  0  0  0  0  0  0
   17.7917   -3.8000    0.0000 C   0  0  0  0  0  0  0  0  0  0  0  0
    0.5917   -3.9250    0.0000 C   0  0  0  0  0  0  0  0  0  0  0  0
   14.9208   -3.8417    0.0000 C   0  0  0  0  0  0  0  0  0  0  0  0
   13.4875   -3.8333    0.0000 C   0  0  0  0  0  0  0  0  0  0  0  0
   36.4250   -3.6875    0.0000 C   0  0  0  0  0  0  0  0  0  0  0  0
   34.9875   -3.6750    0.0000 C   0  0  0  0  0  0  0  0  0  0  0  0
   19.2208   -3.8125    0.0000 C   0  0  0  0  0  0  0  0  0  0  0  0
   45.0333   -4.4417    0.0000 C   0  0  0  0  0  0  0  0  0  0  0  0
   -1.5625   -3.5375    0.0000 C   0  0  0  0  0  0  0  0  0  0  0  0
   45.7417   -3.1958    0.0000 C   0  0  0  0  0  0  0  0  0  0  0  0
   -2.2625   -4.7833    0.0000 C   0  0  0  0  0  0  0  0  0  0  0  0
   12.7625   -0.9625    0.0000 C   0  0  0  0  0  0  0  0  0  0  0  0
   17.0625   -0.9333    0.0000 C   0  0  0  0  0  0  0  0  0  0  0  0
   10.6208   -3.8750    0.0000 C   0  0  0  0  0  0  0  0  0  0  0  0
   23.5208   -3.7792    0.0000 C   0  0  0  0  0  0  0  0  0  0  0  0
   38.5625   -0.7750    0.0000 C   0  0  0  0  0  0  0  0  0  0  0  0
   34.2625   -0.8083    0.0000 C   0  0  0  0  0  0  0  0  0  0  0  0
   10.6208   -4.6917    0.0000 C   0  0  0  0  0  0  0  0  0  0  0  0
   23.5208   -4.6000    0.0000 C   0  0  0  0  0  0  0  0  0  0  0  0
   17.0625   -0.0917    0.0000 C   0  0  0  0  0  0  0  0  0  0  0  0
   34.2625    0.0292    0.0000 C   0  0  0  0  0  0  0  0  0  0  0  0
   38.5625    0.0583    0.0000 C   0  0  0  0  0  0  0  0  0  0  0  0
   12.7625   -0.1208    0.0000 C   0  0  0  0  0  0  0  0  0  0  0  0
   29.9625   -0.0042    0.0000 C   0  0  0  0  0  0  0  0  0  0  0  0
   42.8625    0.0917    0.0000 C   0  0  0  0  0  0  0  0  0  0  0  0
   43.5708   -1.1583    0.0000 C   0  0  0  0  0  0  0  0  0  0  0  0
   30.6708   -1.2458    0.0000 C   0  0  0  0  0  0  0  0  0  0  0  0
   17.7917   -4.6417    0.0000 C   0  0  0  0  0  0  0  0  0  0  0  0
   -0.8417   -3.9458    0.0000 C   0  0  0  0  0  0  0  0  0  0  0  0
   46.4583   -3.6042    0.0000 C   0  0  0  0  0  0  0  0  0  0  0  0
   45.7500   -4.8500    0.0000 C   0  0  0  0  0  0  0  0  0  0  0  0
   -1.5500   -5.1917    0.0000 C   0  0  0  0  0  0  0  0  0  0  0  0
   -0.8375   -4.7708    0.0000 C   0  0  0  0  0  0  0  0  0  0  0  0
   46.4583   -4.4292    0.0000 C   0  0  0  0  0  0  0  0  0  0  0  0
  1  2  1  0  0  0  0
  1  3  1  6  0  0  0
 37  4  1  0  0  0  0
 39  5  1  0  0  0  0
 38  6  1  0  0  0  0
  7 15  1  0  0  0  0
  8 13  1  0  0  0  0
  9 14  1  0  0  0  0
 10  3  1  0  0  0  0
 29 11  1  0  0  0  0
 30 12  1  0  0  0  0
 72 13  1  0  0  0  0
 70 14  1  0  0  0  0
 73 15  1  0  0  0  0
 45 16  1  0  0  0  0
 44 17  1  0  0  0  0
 54 18  1  0  0  0  0
 55 19  1  0  0  0  0
 20 34  1  0  0  0  0
 21  2  1  0  0  0  0
 63 22  1  0  0  0  0
 74 23  1  0  0  0  0
 71 24  1  0  0  0  0
 75 25  1  0  0  0  0
 78 26  1  0  0  0  0
 27 11  1  0  0  0  0
 28 22  1  0  0  0  0
 29 21  1  1  0  0  0
 30 28  1  6  0  0  0
 31 18  1  0  0  0  0
 32 12  1  0  0  0  0
 33 23  1  0  0  0  0
 51 34  1  1  0  0  0
 35 27  1  6  0  0  0
 36 16  1  0  0  0  0
 37  7  1  6  0  0  0
 38  8  1  6  0  0  0
 39  9  1  6  0  0  0
 40 19  1  0  0  0  0
 41  5  1  0  0  0  0
 42  4  1  0  0  0  0
 43  6  1  0  0  0  0
 44 31  1  6  0  0  0
 45 33  1  6  0  0  0
 46 25  1  0  0  0  0
 47 17  1  0  0  0  0
 48 26  1  0  0  0  0
 49 24  1  0  0  0  0
 35 50  1  0  0  0  0
 51 10  1  0  0  0  0
 45 52  1  0  0  0  0
 44 53  1  0  0  0  0
 54 32  1  1  0  0  0
 55 36  1  1  0  0  0
 56 80  1  0  0  0  0
 57 20  1  0  0  0  0
 58 40  1  6  0  0  0
 58 59  1  0  0  0  0
 57 60  1  6  0  0  0
 61 64  1  0  0  0  0
 62 68  1  0  0  0  0
 63 46  1  1  0  0  0
 51 64  1  0  0  0  0
 65 52  1  0  0  0  0
 66 61  1  0  0  0  0
 67 53  1  0  0  0  0
 68114  1  0  0  0  0
 69 50  1  0  0  0  0
 70 42  1  1  0  0  0
 71 41  1  0  0  0  0
 72 47  1  1  0  0  0
 73 48  1  1  0  0  0
 74 43  1  1  0  0  0
 75 49  1  6  0  0  0
 76 66  1  0  0  0  0
 77 60  1  0  0  0  0
 78 62  1  6  0  0  0
 79119  1  0  0  0  0
 80 61  2  0  0  0  0
 81  2  2  0  0  0  0
 82  5  2  0  0  0  0
 83  4  2  0  0  0  0
 84  6  2  0  0  0  0
 85 11  2  0  0  0  0
 86 12  2  0  0  0  0
 87 10  2  0  0  0  0
 88 15  2  0  0  0  0
 89 13  2  0  0  0  0
 90 14  2  0  0  0  0
 91 19  2  0  0  0  0
 92 17  2  0  0  0  0
 93 18  2  0  0  0  0
 94 16  2  0  0  0  0
 95 20  2  0  0  0  0
 96 23  2  0  0  0  0
 97 25  2  0  0  0  0
 98 22  2  0  0  0  0
 99 24  2  0  0  0  0
100 26  2  0  0  0  0
 57101  1  0  0  0  0
 58102  1  0  0  0  0
103 50  2  0  0  0  0
104 59  2  0  0  0  0
 55105  1  0  0  0  0
 54106  1  0  0  0  0
  1107  1  0  0  0  0
108 65  2  0  0  0  0
109 67  2  0  0  0  0
110 68  2  0  0  0  0
111 77  2  0  0  0  0
112 79  2  0  0  0  0
 63113  1  0  0  0  0
114 69  1  0  0  0  0
 38115  1  0  0  0  0
 37116  1  0  0  0  0
 39117  1  0  0  0  0
118 65  1  0  0  0  0
119113  1  0  0  0  0
120 59  1  0  0  0  0
121 67  1  0  0  0  0
122 79  1  0  0  0  0
123102  1  0  0  0  0
124101  1  0  0  0  0
 29125  1  0  0  0  0
 30126  1  0  0  0  0
 35127  1  0  0  0  0
128136  1  0  0  0  0
129151  1  0  0  0  0
130152  1  0  0  0  0
131153  1  0  0  0  0
132150  1  0  0  0  0
133154  1  0  0  0  0
134149  1  0  0  0  0
107135  1  6  0  0  0
136 77  1  0  0  0  0
137125  1  0  0  0  0
138127  1  0  0  0  0
139126  1  0  0  0  0
140105  1  0  0  0  0
141106  1  0  0  0  0
 70142  1  0  0  0  0
 75143  1  0  0  0  0
 74144  1  0  0  0  0
 73145  1  0  0  0  0
 72146  1  0  0  0  0
 78147  1  0  0  0  0
 71148  1  1  0  0  0
149173  1  0  0  0  0
150176  1  0  0  0  0
151172  1  0  0  0  0
152174  1  0  0  0  0
153177  1  0  0  0  0
154175  1  0  0  0  0
117155  1  0  0  0  0
107156  1  0  0  0  0
157116  1  0  0  0  0
158116  1  0  0  0  0
159115  1  0  0  0  0
160115  1  0  0  0  0
117161  1  1  0  0  0
162123  2  0  0  0  0
163124  2  0  0  0  0
164123  1  0  0  0  0
165124  1  0  0  0  0
166145  1  0  0  0  0
167142  1  0  0  0  0
168147  1  0  0  0  0
169143  1  0  0  0  0
170144  1  0  0  0  0
171146  1  0  0  0  0
172168  1  0  0  0  0
173169  1  0  0  0  0
174167  1  0  0  0  0
175171  1  0  0  0  0
176170  1  0  0  0  0
177166  1  0  0  0  0
178141  1  0  0  0  0
179140  1  0  0  0  0
180140  1  0  0  0  0
181141  1  0  0  0  0
182155  1  0  0  0  0
183163  1  0  0  0  0
184164  2  0  0  0  0
185162  1  0  0  0  0
186165  2  0  0  0  0
187183  2  0  0  0  0
188184  1  0  0  0  0
 56 76  2  0  0  0  0
186187  1  0  0  0  0
185188  2  0  0  0  0
M  END
> <From>
www.bindingDB.org

> <BindingDB Reactant_set_id>
51016966

> <Ligand InChI>
InChI=1S/C121H201N33O34/c1-13-68(10)98(153-108(174)79(41-25-31-49-127)141-118(184)97(67(8)9)151-106(172)77(39-23-29-47-125)137-102(168)74(36-20-26-44-122)134-93(161)59-131-101(167)88(60-155)148-116(182)90(62-157)150-120(186)99(70(12)158)154-114(180)84(54-73-58-130-63-132-73)144-111(177)83(135-92(160)57-128)52-71-32-16-14-17-33-71)119(185)133-69(11)100(166)136-75(37-21-27-45-123)103(169)139-80(42-43-94(162)163)105(171)149-89(61-156)115(181)143-81(50-64(2)3)109(175)146-86(56-95(164)165)113(179)138-78(40-24-30-48-126)107(173)152-96(66(6)7)117(183)140-76(38-22-28-46-124)104(170)145-85(55-91(129)159)112(178)142-82(51-65(4)5)110(176)147-87(121(187)188)53-72-34-18-15-19-35-72/h14-19,32-35,58,63-70,74-90,96-99,155-158H,13,20-31,36-57,59-62,122-128H2,1-12H3,(H2,129,159)(H,130,132)(H,131,167)(H,133,185)(H,134,161)(H,135,160)(H,136,166)(H,137,168)(H,138,179)(H,139,169)(H,140,183)(H,141,184)(H,142,178)(H,143,181)(H,144,177)(H,145,170)(H,146,175)(H,147,176)(H,148,182)(H,149,171)(H,150,186)(H,151,172)(H,152,173)(H,153,174)(H,154,180)(H,162,163)(H,164,165)(H,187,188)/t68-,69-,70+,74-,75-,76-,77-,78-,79-,80-,81-,82-,83-,84-,85-,86-,87-,88-,89-,90-,96-,97-,98-,99-/m0/s1

> <Ligand InChI Key>
QDABHLQCDMOFIR-LNCJGMMUSA-N

> <BindingDB MonomerID>
50416567

> <BindingDB Ligand Name>
CHEMBL1215816

> <Target Name>
DNA repair protein RAD51 homolog 1

> <Target Source Organism According to Curator or DataSource>
Homo sapiens

> <Ki (nM)>
>40000

> <IC50 (nM)>


> <Kd (nM)>


> <EC50 (nM)>


> <kon (M-1-s-1)>


> <koff (s-1)>


> <pH>


> <Temp C>


> <Curation/DataSource>
ChEMBL

> <Article DOI>
10.1021/jm1002974

> <BindingDB Entry DOI>
10.7270/Q2NG4RV5

> <PMID>
20684611

> <PubChem AID>


> <Patent Number>


> <Authors>
Nomme, J; Renodon-Corniere, A; Asanomi, Y; Sakaguchi, K; Stasiak, AZ; Stasiak, A; Norden, B; Tran, V; Takahashi, M

> <Date of publication>
8/5/2010

> <Date in BindingDB>
5/22/2013

> <Institution>
Centre National de la Recherche Scientifique & Universite de Nantes

> <Link to Ligand in BindingDB>
http://www.bindingdb.org/bind/chemsearch/marvin/MolStructure.jsp?monomerid=50416567

> <Link to Ligand-Target Pair in BindingDB>
http://www.bindingdb.org/jsp/dbsearch/PrimarySearch_ki.jsp?energyterm=kJ/mole&tag=pol&polymerid=4676&target=DNA+repair+protein+RAD51+homolog+1&column=ki&startPg=0&Increment=50&submit=Search

> <Link to Ligand-Target Pair in BindingDB>
http://www.bindingdb.org/jsp/dbsearch/PrimarySearch_ki.jsp?energyterm=kJ/mole&tag=r21&monomerid=50416567&enzyme=DNA+repair+protein+RAD51+homolog+1&column=ki&startPg=0&Increment=50&submit=Search

> <Ligand HET ID in PDB>


> <PDB ID(s) for Ligand-Target Complex>


> <PubChem CID of Ligand>
49864244

> <PubChem SID of Ligand>
163365591

> <ChEBI ID of Ligand>


> <ChEMBL ID of Ligand>
CHEMBL1215816

> <DrugBank ID of Ligand>


> <IUPHAR_GRAC ID of Ligand>


> <KEGG ID of Ligand>


> <ZINC ID of Ligand>


> <Number of Protein Chains in Target (bigger than 1 implies a multichain complex)>
1

> <BindingDB Target Chain Sequence>
MAMQMQLEANADTSVEEESFGPQPISRLEQCGINANDVKKLEEAGFHTVEAVAYAPKKELINIKGISEAKADKILAEAAKLVPMGFTTATEFHQRRSEIIQITTGSKELDKLLQGGIETGSITEMFGEFRTGKTQICHTLAVTCQLPIDRGGGEGKAMYIDTEGTFRPERLLAVAERYGLSGSDVLDNVAYARAFNTDHQTQLLYQASAMMVESRYALLIVDSATALYRTDYSGRGELSARQMHLARFLRMLLRLADEFGVAVVITNQVVAQVDGAAMFAADPKKPIGGNIIAHASTTRLYLRKGRGETRICKIYDSPCLPEAEAMFAINADGVGDAKD

> <PDB ID(s) of Target Chain>
1N0W,5JZC,5NP7,5NWL,8BQ2,8BR2,8BSC

> <UniProt (SwissProt) Recommended Name of Target Chain>
DNA repair protein RAD51 homolog 1

> <UniProt (SwissProt) Entry Name of Target Chain>
RAD51_HUMAN

> <UniProt (SwissProt) Primary ID of Target Chain>
Q06609

> <UniProt (SwissProt) Secondary ID(s) of Target Chain>
B0FXP0 B2R8T6 Q6FHX9 Q6ZNA8 Q9BV60

> <UniProt (SwissProt) Alternative ID(s) of Target Chain>


> <UniProt (TrEMBL) Submitted Name of Target Chain>


> <UniProt (TrEMBL) Entry Name of Target Chain>


> <UniProt (TrEMBL) Primary ID of Target Chain>


> <UniProt (TrEMBL) Secondary ID(s) of Target Chain>


> <UniProt (TrEMBL) Alternative ID(s) of Target Chain>


$$$$

  SciTegic09081514162D

 22 24  0  0  0  0            999 V2000
    6.3875    3.7758    0.0000 O   0  0
    5.5870    4.6698    0.0000 S   0  0
    5.2132    3.5296    0.0000 O   0  0
   -2.3155    0.7475    0.0000 C   0  0
   -2.3155   -0.7475    0.0000 C   0  0
   -1.0028   -1.5132    0.0000 C   0  0
   -1.0028    1.5132    0.0000 C   0  0
    0.2917    0.7475    0.0000 C   0  0
    0.2917   -0.7475    0.0000 C   0  0
    1.7138   -1.2033    0.0000 N   0  0
    2.5889    0.0182    0.0000 C   0  0
    1.7138    1.2033    0.0000 C   0  0
    2.1812    2.6271    0.0000 C   0  0
    3.6500    2.9355    0.0000 C   0  0
    4.1182    4.3614    0.0000 N   0  0
    6.0553    6.0958    0.0000 C   0  0
    7.4764    6.5340    0.0000 C   0  0
    7.4811    8.0340    0.0000 C   0  0
    6.0560    8.5020    0.0000 C   0  0
    5.1705    7.2912    0.0000 S   0  0
    5.6887    9.6444    0.0000 Cl  0  0
    8.4541    8.7363    0.0000 Br  0  0
  2  1  2  0
  3  2  2  0
  4  5  2  0
  5  6  1  0
  6  9  2  0
  8  7  2  0
  7  4  1  0
  8  9  1  0
  9 10  1  0
 10 11  1  0
 11 12  2  0
 12  8  1  0
 12 13  1  0
 13 14  1  0
 14 15  1  0
 15  2  1  0
  2 16  1  0
 16 17  2  0
 17 18  1  0
 18 19  2  0
 19 20  1  0
 20 16  1  0
 19 21  1  0
 18 22  1  0
M  END
> <From>
www.bindingDB.org

> <BindingDB Reactant_set_id>
50338912

> <Ligand InChI>
InChI=1S/C14H12BrClN2O2S2/c15-11-7-13(21-14(11)16)22(19,20)18-6-5-9-8-17-12-4-2-1-3-10(9)12/h1-4,7-8,17-18H,5-6H2

> <Ligand InChI Key>
GFFPHNCWJPRDOK-UHFFFAOYSA-N

> <BindingDB MonomerID>
50088343

> <BindingDB Ligand Name>
CHEMBL3427781

> <Target Name>
DNA repair protein RAD51 homolog 1

> <Target Source Organism According to Curator or DataSource>
Homo sapiens

> <Ki (nM)>


> <IC50 (nM)>


> <Kd (nM)>
 1300

> <EC50 (nM)>


> <kon (M-1-s-1)>


> <koff (s-1)>


> <pH>


> <Temp C>


> <Curation/DataSource>
ChEMBL

> <Article DOI>
10.1016/j.bmcl.2015.04.089

> <BindingDB Entry DOI>
10.7270/Q2SF2XVC

> <PMID>
25971770

> <PubChem AID>


> <Patent Number>


> <Authors>
Magee, TV

> <Date of publication>
5/25/2015

> <Date in BindingDB>
5/7/2016

> <Institution>
Pfizer Inc

> <Link to Ligand in BindingDB>
http://www.bindingdb.org/bind/chemsearch/marvin/MolStructure.jsp?monomerid=50088343

> <Link to Ligand-Target Pair in BindingDB>
http://www.bindingdb.org/jsp/dbsearch/PrimarySearch_ki.jsp?energyterm=kJ/mole&tag=pol&polymerid=4676&target=DNA+repair+protein+RAD51+homolog+1&column=ki&startPg=0&Increment=50&submit=Search

> <Link to Ligand-Target Pair in BindingDB>
http://www.bindingdb.org/jsp/dbsearch/PrimarySearch_ki.jsp?energyterm=kJ/mole&tag=r21&monomerid=50088343&enzyme=DNA+repair+protein+RAD51+homolog+1&column=ki&startPg=0&Increment=50&submit=Search

> <Ligand HET ID in PDB>


> <PDB ID(s) for Ligand-Target Complex>


> <PubChem CID of Ligand>
118738037

> <PubChem SID of Ligand>
103987267

> <ChEBI ID of Ligand>


> <ChEMBL ID of Ligand>
CHEMBL3427781

> <DrugBank ID of Ligand>


> <IUPHAR_GRAC ID of Ligand>


> <KEGG ID of Ligand>


> <ZINC ID of Ligand>
ZINC26173955

> <Number of Protein Chains in Target (bigger than 1 implies a multichain complex)>
1

> <BindingDB Target Chain Sequence>
MAMQMQLEANADTSVEEESFGPQPISRLEQCGINANDVKKLEEAGFHTVEAVAYAPKKELINIKGISEAKADKILAEAAKLVPMGFTTATEFHQRRSEIIQITTGSKELDKLLQGGIETGSITEMFGEFRTGKTQICHTLAVTCQLPIDRGGGEGKAMYIDTEGTFRPERLLAVAERYGLSGSDVLDNVAYARAFNTDHQTQLLYQASAMMVESRYALLIVDSATALYRTDYSGRGELSARQMHLARFLRMLLRLADEFGVAVVITNQVVAQVDGAAMFAADPKKPIGGNIIAHASTTRLYLRKGRGETRICKIYDSPCLPEAEAMFAINADGVGDAKD

> <PDB ID(s) of Target Chain>
1N0W,5JZC,5NP7,5NWL,8BQ2,8BR2,8BSC

> <UniProt (SwissProt) Recommended Name of Target Chain>
DNA repair protein RAD51 homolog 1

> <UniProt (SwissProt) Entry Name of Target Chain>
RAD51_HUMAN

> <UniProt (SwissProt) Primary ID of Target Chain>
Q06609

> <UniProt (SwissProt) Secondary ID(s) of Target Chain>
B0FXP0 B2R8T6 Q6FHX9 Q6ZNA8 Q9BV60

> <UniProt (SwissProt) Alternative ID(s) of Target Chain>


> <UniProt (TrEMBL) Submitted Name of Target Chain>


> <UniProt (TrEMBL) Entry Name of Target Chain>


> <UniProt (TrEMBL) Primary ID of Target Chain>


> <UniProt (TrEMBL) Secondary ID(s) of Target Chain>


> <UniProt (TrEMBL) Alternative ID(s) of Target Chain>


$$$$

  SciTegic09081514162D

 22 24  0  0  0  0            999 V2000
    6.3875    3.7758    0.0000 O   0  0
    5.5870    4.6698    0.0000 S   0  0
    5.2132    3.5296    0.0000 O   0  0
   -2.3155    0.7475    0.0000 C   0  0
   -2.3155   -0.7475    0.0000 C   0  0
   -1.0028   -1.5132    0.0000 C   0  0
   -1.0028    1.5132    0.0000 C   0  0
    0.2917    0.7475    0.0000 C   0  0
    0.2917   -0.7475    0.0000 C   0  0
    1.7138   -1.2033    0.0000 N   0  0
    2.5889    0.0182    0.0000 C   0  0
    1.7138    1.2033    0.0000 C   0  0
    2.1812    2.6271    0.0000 C   0  0
    3.6500    2.9355    0.0000 C   0  0
    4.1182    4.3614    0.0000 N   0  0
    6.0553    6.0958    0.0000 C   0  0
    7.4764    6.5340    0.0000 C   0  0
    7.4811    8.0340    0.0000 C   0  0
    6.0560    8.5020    0.0000 C   0  0
    5.1705    7.2912    0.0000 S   0  0
    5.6887    9.6444    0.0000 Cl  0  0
    8.4541    8.7363    0.0000 Br  0  0
  2  1  2  0
  3  2  2  0
  4  5  2  0
  5  6  1  0
  6  9  2  0
  8  7  2  0
  7  4  1  0
  8  9  1  0
  9 10  1  0
 10 11  1  0
 11 12  2  0
 12  8  1  0
 12 13  1  0
 13 14  1  0
 14 15  1  0
 15  2  1  0
  2 16  1  0
 16 17  2  0
 17 18  1  0
 18 19  2  0
 19 20  1  0
 20 16  1  0
 19 21  1  0
 18 22  1  0
M  END
> <From>
www.bindingDB.org

> <BindingDB Reactant_set_id>
50523322

> <Ligand InChI>
InChI=1S/C14H12BrClN2O2S2/c15-11-7-13(21-14(11)16)22(19,20)18-6-5-9-8-17-12-4-2-1-3-10(9)12/h1-4,7-8,17-18H,5-6H2

> <Ligand InChI Key>
GFFPHNCWJPRDOK-UHFFFAOYSA-N

> <BindingDB MonomerID>
50088343

> <BindingDB Ligand Name>
CHEMBL3427781

> <Target Name>
DNA repair protein RAD51 homolog 1

> <Target Source Organism According to Curator or DataSource>
Homo sapiens

> <Ki (nM)>


> <IC50 (nM)>


> <Kd (nM)>
 1300

> <EC50 (nM)>


> <kon (M-1-s-1)>


> <koff (s-1)>


> <pH>


> <Temp C>


> <Curation/DataSource>
ChEMBL

> <Article DOI>
10.1021/acs.jmedchem.6b01123

> <BindingDB Entry DOI>
10.7270/Q2R78H5B

> <PMID>
27739691

> <PubChem AID>


> <Patent Number>


> <Authors>
Johnson, CN; Erlanson, DA; Murray, CW; Rees, DC

> <Date of publication>
1/12/2017

> <Date in BindingDB>
7/15/2018

> <Institution>
Astex Pharmaceuticals

> <Link to Ligand in BindingDB>
http://www.bindingdb.org/bind/chemsearch/marvin/MolStructure.jsp?monomerid=50088343

> <Link to Ligand-Target Pair in BindingDB>
http://www.bindingdb.org/jsp/dbsearch/PrimarySearch_ki.jsp?energyterm=kJ/mole&tag=pol&polymerid=4676&target=DNA+repair+protein+RAD51+homolog+1&column=ki&startPg=0&Increment=50&submit=Search

> <Link to Ligand-Target Pair in BindingDB>
http://www.bindingdb.org/jsp/dbsearch/PrimarySearch_ki.jsp?energyterm=kJ/mole&tag=r21&monomerid=50088343&enzyme=DNA+repair+protein+RAD51+homolog+1&column=ki&startPg=0&Increment=50&submit=Search

> <Ligand HET ID in PDB>


> <PDB ID(s) for Ligand-Target Complex>


> <PubChem CID of Ligand>
118738037

> <PubChem SID of Ligand>
103987267

> <ChEBI ID of Ligand>


> <ChEMBL ID of Ligand>
CHEMBL3427781

> <DrugBank ID of Ligand>


> <IUPHAR_GRAC ID of Ligand>


> <KEGG ID of Ligand>


> <ZINC ID of Ligand>
ZINC26173955

> <Number of Protein Chains in Target (bigger than 1 implies a multichain complex)>
1

> <BindingDB Target Chain Sequence>
MAMQMQLEANADTSVEEESFGPQPISRLEQCGINANDVKKLEEAGFHTVEAVAYAPKKELINIKGISEAKADKILAEAAKLVPMGFTTATEFHQRRSEIIQITTGSKELDKLLQGGIETGSITEMFGEFRTGKTQICHTLAVTCQLPIDRGGGEGKAMYIDTEGTFRPERLLAVAERYGLSGSDVLDNVAYARAFNTDHQTQLLYQASAMMVESRYALLIVDSATALYRTDYSGRGELSARQMHLARFLRMLLRLADEFGVAVVITNQVVAQVDGAAMFAADPKKPIGGNIIAHASTTRLYLRKGRGETRICKIYDSPCLPEAEAMFAINADGVGDAKD

> <PDB ID(s) of Target Chain>
1N0W,5JZC,5NP7,5NWL,8BQ2,8BR2,8BSC

> <UniProt (SwissProt) Recommended Name of Target Chain>
DNA repair protein RAD51 homolog 1

> <UniProt (SwissProt) Entry Name of Target Chain>
RAD51_HUMAN

> <UniProt (SwissProt) Primary ID of Target Chain>
Q06609

> <UniProt (SwissProt) Secondary ID(s) of Target Chain>
B0FXP0 B2R8T6 Q6FHX9 Q6ZNA8 Q9BV60

> <UniProt (SwissProt) Alternative ID(s) of Target Chain>


> <UniProt (TrEMBL) Submitted Name of Target Chain>


> <UniProt (TrEMBL) Entry Name of Target Chain>


> <UniProt (TrEMBL) Primary ID of Target Chain>


> <UniProt (TrEMBL) Secondary ID(s) of Target Chain>


> <UniProt (TrEMBL) Alternative ID(s) of Target Chain>


$$$$

  SciTegic09081514162D

 31 34  0  0  0  0            999 V2000
   -2.3155    0.7475    0.0000 C   0  0
   -2.3155   -0.7475    0.0000 C   0  0
   -1.0028   -1.5132    0.0000 C   0  0
   -1.0028    1.5132    0.0000 C   0  0
    0.2917    0.7475    0.0000 C   0  0
    0.2917   -0.7475    0.0000 C   0  0
    1.7138   -1.2033    0.0000 N   0  0
    2.5889    0.0182    0.0000 C   0  0
    1.7138    1.2033    0.0000 C   0  0
    2.1812    2.6271    0.0000 C   0  0
    3.6500    2.9355    0.0000 C   0  0  1  0  0  0
    4.1198    4.3609    0.0000 C   0  0
    4.6488    1.8153    0.0000 N   0  0
    5.2947    4.6051    0.0000 O   0  0
    3.1210    5.4811    0.0000 O   0  0
    3.5908    6.9065    0.0000 C   0  0
    2.5920    8.0267    0.0000 C   0  0
    3.0618    9.4521    0.0000 C   0  0
    2.0651   10.5732    0.0000 C   0  0
    2.5376   11.9968    0.0000 C   0  0
    4.0067   12.2995    0.0000 C   0  0
    5.0034   11.1785    0.0000 C   0  0
    4.5310    9.7549    0.0000 C   0  0
    4.1791    0.3899    0.0000 C   0  0
    5.1779   -0.7302    0.0000 C   0  0
    3.2000    0.1865    0.0000 O   0  0
    4.7104   -2.1556    0.0000 C   0  0
    5.7110   -3.2731    0.0000 C   0  0
    7.1791   -2.9654    0.0000 C   0  0
    7.6466   -1.5401    0.0000 C   0  0
    6.6460   -0.4226    0.0000 C   0  0
  1  2  2  0
  2  3  1  0
  3  6  2  0
  5  4  2  0
  4  1  1  0
  5  6  1  0
  6  7  1  0
  7  8  1  0
  8  9  2  0
  9  5  1  0
  9 10  1  0
 11 10  1  1
 11 12  1  0
 11 13  1  0
 12 14  2  0
 12 15  1  0
 15 16  1  0
 16 17  1  0
 17 18  1  0
 18 19  2  0
 19 20  1  0
 20 21  2  0
 21 22  1  0
 22 23  2  0
 23 18  1  0
 13 24  1  0
 24 25  1  0
 24 26  2  0
 25 27  2  0
 27 28  1  0
 28 29  2  0
 29 30  1  0
 30 31  2  0
 31 25  1  0
M  END
> <From>
www.bindingDB.org

> <BindingDB Reactant_set_id>
50338913

> <Ligand InChI>
InChI=1S/C26H24N2O3/c29-25(20-11-5-2-6-12-20)28-24(17-21-18-27-23-14-8-7-13-22(21)23)26(30)31-16-15-19-9-3-1-4-10-19/h1-14,18,24,27H,15-17H2,(H,28,29)/t24-/m0/s1

> <Ligand InChI Key>
QIVLIHIIKZYBAH-DEOSSOPVSA-N

> <BindingDB MonomerID>
50088345

> <BindingDB Ligand Name>
CHEMBL3427780

> <Target Name>
DNA repair protein RAD51 homolog 1

> <Target Source Organism According to Curator or DataSource>
Homo sapiens

> <Ki (nM)>


> <IC50 (nM)>


> <Kd (nM)>
 3000

> <EC50 (nM)>


> <kon (M-1-s-1)>


> <koff (s-1)>


> <pH>


> <Temp C>


> <Curation/DataSource>
ChEMBL

> <Article DOI>
10.1016/j.bmcl.2015.04.089

> <BindingDB Entry DOI>
10.7270/Q2SF2XVC

> <PMID>
25971770

> <PubChem AID>


> <Patent Number>


> <Authors>
Magee, TV

> <Date of publication>
5/25/2015

> <Date in BindingDB>
5/7/2016

> <Institution>
Pfizer Inc

> <Link to Ligand in BindingDB>
http://www.bindingdb.org/bind/chemsearch/marvin/MolStructure.jsp?monomerid=50088345

> <Link to Ligand-Target Pair in BindingDB>
http://www.bindingdb.org/jsp/dbsearch/PrimarySearch_ki.jsp?energyterm=kJ/mole&tag=pol&polymerid=4676&target=DNA+repair+protein+RAD51+homolog+1&column=ki&startPg=0&Increment=50&submit=Search

> <Link to Ligand-Target Pair in BindingDB>
http://www.bindingdb.org/jsp/dbsearch/PrimarySearch_ki.jsp?energyterm=kJ/mole&tag=r21&monomerid=50088345&enzyme=DNA+repair+protein+RAD51+homolog+1&column=ki&startPg=0&Increment=50&submit=Search

> <Ligand HET ID in PDB>


> <PDB ID(s) for Ligand-Target Complex>


> <PubChem CID of Ligand>
118738036

> <PubChem SID of Ligand>
103987269

> <ChEBI ID of Ligand>


> <ChEMBL ID of Ligand>
CHEMBL3427780

> <DrugBank ID of Ligand>


> <IUPHAR_GRAC ID of Ligand>


> <KEGG ID of Ligand>


> <ZINC ID of Ligand>
ZINC26181910

> <Number of Protein Chains in Target (bigger than 1 implies a multichain complex)>
1

> <BindingDB Target Chain Sequence>
MAMQMQLEANADTSVEEESFGPQPISRLEQCGINANDVKKLEEAGFHTVEAVAYAPKKELINIKGISEAKADKILAEAAKLVPMGFTTATEFHQRRSEIIQITTGSKELDKLLQGGIETGSITEMFGEFRTGKTQICHTLAVTCQLPIDRGGGEGKAMYIDTEGTFRPERLLAVAERYGLSGSDVLDNVAYARAFNTDHQTQLLYQASAMMVESRYALLIVDSATALYRTDYSGRGELSARQMHLARFLRMLLRLADEFGVAVVITNQVVAQVDGAAMFAADPKKPIGGNIIAHASTTRLYLRKGRGETRICKIYDSPCLPEAEAMFAINADGVGDAKD

> <PDB ID(s) of Target Chain>
1N0W,5JZC,5NP7,5NWL,8BQ2,8BR2,8BSC

> <UniProt (SwissProt) Recommended Name of Target Chain>
DNA repair protein RAD51 homolog 1

> <UniProt (SwissProt) Entry Name of Target Chain>
RAD51_HUMAN

> <UniProt (SwissProt) Primary ID of Target Chain>
Q06609

> <UniProt (SwissProt) Secondary ID(s) of Target Chain>
B0FXP0 B2R8T6 Q6FHX9 Q6ZNA8 Q9BV60

> <UniProt (SwissProt) Alternative ID(s) of Target Chain>


> <UniProt (TrEMBL) Submitted Name of Target Chain>


> <UniProt (TrEMBL) Entry Name of Target Chain>


> <UniProt (TrEMBL) Primary ID of Target Chain>


> <UniProt (TrEMBL) Secondary ID(s) of Target Chain>


> <UniProt (TrEMBL) Alternative ID(s) of Target Chain>


$$$$
5738263
  Mrv0541 11251415582D          

 26 29  0  0  0  0            999 V2000
    5.2223   -1.6500    0.0000 O   0  0  0  0  0  0  0  0  0  0  0  0
    4.5079   -0.4125    0.0000 N   0  0  0  0  0  0  0  0  0  0  0  0
    5.2223    0.8250    0.0000 N   0  0  0  0  0  0  0  0  0  0  0  0
    1.6500    2.0625    0.0000 N   0  0  0  0  0  0  0  0  0  0  0  0
    3.7934   -0.8250    0.0000 C   0  0  0  0  0  0  0  0  0  0  0  0
    4.5079    0.4125    0.0000 C   0  0  0  0  0  0  0  0  0  0  0  0
    5.9369   -0.4125    0.0000 C   0  0  0  0  0  0  0  0  0  0  0  0
    5.2223   -0.8250    0.0000 C   0  0  0  0  0  0  0  0  0  0  0  0
    3.7934   -1.6500    0.0000 C   0  0  0  0  0  0  0  0  0  0  0  0
    5.9369    0.4125    0.0000 C   0  0  0  0  0  0  0  0  0  0  0  0
    6.6743   -0.8536    0.0000 C   0  0  0  0  0  0  0  0  0  0  0  0
    3.7934    0.8250    0.0000 C   0  0  0  0  0  0  0  0  0  0  0  0
    6.6743    0.8536    0.0000 C   0  0  0  0  0  0  0  0  0  0  0  0
    3.0789   -2.0625    0.0000 C   0  0  0  0  0  0  0  0  0  0  0  0
    4.5079   -2.0625    0.0000 C   0  0  0  0  0  0  0  0  0  0  0  0
    7.4219   -0.4297    0.0000 C   0  0  0  0  0  0  0  0  0  0  0  0
    7.4219    0.4297    0.0000 C   0  0  0  0  0  0  0  0  0  0  0  0
    3.7934    1.6500    0.0000 C   0  0  0  0  0  0  0  0  0  0  0  0
    3.0789   -2.8875    0.0000 C   0  0  0  0  0  0  0  0  0  0  0  0
    4.5079   -2.8875    0.0000 C   0  0  0  0  0  0  0  0  0  0  0  0
    3.7934   -3.3000    0.0000 C   0  0  0  0  0  0  0  0  0  0  0  0
    3.0789    2.0625    0.0000 C   0  0  0  0  0  0  0  0  0  0  0  0
    3.0789    2.8875    0.0000 C   0  0  0  0  0  0  0  0  0  0  0  0
    2.3644    1.6500    0.0000 C   0  0  0  0  0  0  0  0  0  0  0  0
    2.3644    3.3000    0.0000 C   0  0  0  0  0  0  0  0  0  0  0  0
    1.6500    2.8875    0.0000 C   0  0  0  0  0  0  0  0  0  0  0  0
  1  8  2  0  0  0  0
  2  5  1  0  0  0  0
  2  6  1  0  0  0  0
  2  8  1  0  0  0  0
  3  6  2  0  0  0  0
  3 10  1  0  0  0  0
  4 24  2  0  0  0  0
  4 26  1  0  0  0  0
  5  9  1  0  0  0  0
  6 12  1  0  0  0  0
  7  8  1  0  0  0  0
  7 10  1  0  0  0  0
  7 11  2  0  0  0  0
  9 14  2  0  0  0  0
  9 15  1  0  0  0  0
 10 13  2  0  0  0  0
 11 16  1  0  0  0  0
 12 18  2  0  0  0  0
 13 17  1  0  0  0  0
 14 19  1  0  0  0  0
 15 20  2  0  0  0  0
 16 17  2  0  0  0  0
 18 22  1  0  0  0  0
 19 21  2  0  0  0  0
 20 21  1  0  0  0  0
 22 23  2  0  0  0  0
 22 24  1  0  0  0  0
 23 25  1  0  0  0  0
 25 26  2  0  0  0  0
M  END
> <From>
www.bindingDB.org

> <BindingDB Reactant_set_id>
50074165

> <Ligand InChI>
InChI=1S/C22H17N3O/c26-22-19-10-4-5-11-20(19)24-21(13-12-17-9-6-14-23-15-17)25(22)16-18-7-2-1-3-8-18/h1-15H,16H2/b13-12+

> <Ligand InChI Key>
GEKDQXSPTHHANP-OUKQBFOZSA-N

> <BindingDB MonomerID>
48804

> <BindingDB Ligand Name>
3-(phenylmethyl)-2-[(E)-2-(3-pyridinyl)ethenyl]-4-quinazolinone::3-(phenylmethyl)-2-[(E)-2-pyridin-3-ylethenyl]quinazolin-4-one::3-benzyl-2-[(E)-2-(3-pyridyl)vinyl]quinazolin-4-one::3-benzyl-2-[(E)-2-pyridin-3-ylethenyl]quinazolin-4-one::MLS000709026::SMR000289793::cid_5738263

> <Target Name>
DNA repair protein RAD51 homolog 1

> <Target Source Organism According to Curator or DataSource>
Homo sapiens

> <Ki (nM)>


> <IC50 (nM)>


> <Kd (nM)>
 5600

> <EC50 (nM)>


> <kon (M-1-s-1)>


> <koff (s-1)>


> <pH>


> <Temp C>


> <Curation/DataSource>
ChEMBL

> <Article DOI>
10.1021/jm201173g

> <BindingDB Entry DOI>
10.7270/Q2028SKG

> <PMID>
22380680

> <PubChem AID>


> <Patent Number>


> <Authors>
Huang, F; Mazina, OM; Zentner, IJ; Cocklin, S; Mazin, AV

> <Date of publication>
4/12/2012

> <Date in BindingDB>
2/7/2013

> <Institution>
Drexel University College of Medicine

> <Link to Ligand in BindingDB>
http://www.bindingdb.org/bind/chemsearch/marvin/MolStructure.jsp?monomerid=48804

> <Link to Ligand-Target Pair in BindingDB>
http://www.bindingdb.org/jsp/dbsearch/PrimarySearch_ki.jsp?energyterm=kJ/mole&tag=pol&polymerid=4676&target=DNA+repair+protein+RAD51+homolog+1&column=ki&startPg=0&Increment=50&submit=Search

> <Link to Ligand-Target Pair in BindingDB>
http://www.bindingdb.org/jsp/dbsearch/PrimarySearch_ki.jsp?energyterm=kJ/mole&tag=r21&monomerid=48804&enzyme=DNA+repair+protein+RAD51+homolog+1&column=ki&startPg=0&Increment=50&submit=Search

> <Ligand HET ID in PDB>


> <PDB ID(s) for Ligand-Target Complex>


> <PubChem CID of Ligand>
5738263

> <PubChem SID of Ligand>
252629091

> <ChEBI ID of Ligand>


> <ChEMBL ID of Ligand>


> <DrugBank ID of Ligand>


> <IUPHAR_GRAC ID of Ligand>


> <KEGG ID of Ligand>


> <ZINC ID of Ligand>
ZINC04537641

> <Number of Protein Chains in Target (bigger than 1 implies a multichain complex)>
1

> <BindingDB Target Chain Sequence>
MAMQMQLEANADTSVEEESFGPQPISRLEQCGINANDVKKLEEAGFHTVEAVAYAPKKELINIKGISEAKADKILAEAAKLVPMGFTTATEFHQRRSEIIQITTGSKELDKLLQGGIETGSITEMFGEFRTGKTQICHTLAVTCQLPIDRGGGEGKAMYIDTEGTFRPERLLAVAERYGLSGSDVLDNVAYARAFNTDHQTQLLYQASAMMVESRYALLIVDSATALYRTDYSGRGELSARQMHLARFLRMLLRLADEFGVAVVITNQVVAQVDGAAMFAADPKKPIGGNIIAHASTTRLYLRKGRGETRICKIYDSPCLPEAEAMFAINADGVGDAKD

> <PDB ID(s) of Target Chain>
1N0W,5JZC,5NP7,5NWL,8BQ2,8BR2,8BSC

> <UniProt (SwissProt) Recommended Name of Target Chain>
DNA repair protein RAD51 homolog 1

> <UniProt (SwissProt) Entry Name of Target Chain>
RAD51_HUMAN

> <UniProt (SwissProt) Primary ID of Target Chain>
Q06609

> <UniProt (SwissProt) Secondary ID(s) of Target Chain>
B0FXP0 B2R8T6 Q6FHX9 Q6ZNA8 Q9BV60

> <UniProt (SwissProt) Alternative ID(s) of Target Chain>


> <UniProt (TrEMBL) Submitted Name of Target Chain>


> <UniProt (TrEMBL) Entry Name of Target Chain>


> <UniProt (TrEMBL) Primary ID of Target Chain>


> <UniProt (TrEMBL) Secondary ID(s) of Target Chain>


> <UniProt (TrEMBL) Alternative ID(s) of Target Chain>


$$$$
 
     RDKit          2D

 35 39  0  0  0  0  0  0  0  0999 V2000
   15.2120  -25.8204    0.0000 C   0  0  0  0  0  0  0  0  0  0  0  0
   15.2109  -26.6486    0.0000 C   0  0  0  0  0  0  0  0  0  0  0  0
   15.9227  -27.0598    0.0000 C   0  0  0  0  0  0  0  0  0  0  0  0
   15.9209  -25.4052    0.0000 C   0  0  0  0  0  0  0  0  0  0  0  0
   16.6376  -25.8168    0.0000 C   0  0  0  0  0  0  0  0  0  0  0  0
   16.6364  -26.6460    0.0000 C   0  0  0  0  0  0  0  0  0  0  0  0
   17.3506  -27.0574    0.0000 N   0  0  0  0  0  0  0  0  0  0  0  0
   18.0706  -26.6480    0.0000 C   0  0  0  0  0  0  0  0  0  0  0  0
   18.0718  -25.8188    0.0000 C   0  0  0  0  0  0  0  0  0  0  0  0
   17.3530  -25.3988    0.0000 C   0  0  0  0  0  0  0  0  0  0  0  0
   17.3535  -24.5772    0.0000 C   0  0  0  0  0  0  0  0  0  0  0  0
   18.0709  -24.1669    0.0000 C   0  0  0  0  0  0  0  0  0  0  0  0
   18.0713  -23.3419    0.0000 C   0  0  0  0  0  0  0  0  0  0  0  0
   17.3550  -22.9260    0.0000 C   0  0  0  0  0  0  0  0  0  0  0  0
   16.6368  -23.3454    0.0000 C   0  0  0  0  0  0  0  0  0  0  0  0
   16.6400  -24.1691    0.0000 C   0  0  0  0  0  0  0  0  0  0  0  0
   18.7864  -25.4046    0.0000 C   0  0  0  0  0  0  0  0  0  0  0  0
   19.5404  -25.7447    0.0000 C   0  0  0  0  0  0  0  0  0  0  0  0
   20.0917  -25.1313    0.0000 C   0  0  0  0  0  0  0  0  0  0  0  0
   19.6826  -24.4145    0.0000 N   0  0  0  0  0  0  0  0  0  0  0  0
   18.8743  -24.5835    0.0000 N   0  0  0  0  0  0  0  0  0  0  0  0
   18.7852  -27.0609    0.0000 O   0  0  0  0  0  0  0  0  0  0  0  0
   20.0185  -23.6605    0.0000 C   0  0  0  0  0  0  0  0  0  0  0  0
   20.8400  -23.5765    0.0000 C   0  0  0  0  0  0  0  0  0  0  0  0
   19.5371  -22.9904    0.0000 O   0  0  0  0  0  0  0  0  0  0  0  0
   20.9153  -25.1275    0.0000 C   0  0  0  0  0  0  0  0  0  0  0  0
   14.4994  -25.4113    0.0000 Cl  0  0  0  0  0  0  0  0  0  0  0  0
   21.1764  -22.8268    0.0000 C   0  0  0  0  0  0  0  0  0  0  0  0
   21.3286  -25.8411    0.0000 C   0  0  0  0  0  0  0  0  0  0  0  0
   22.1514  -25.8376    0.0000 C   0  0  0  0  0  0  0  0  0  0  0  0
   22.5608  -25.1219    0.0000 C   0  0  0  0  0  0  0  0  0  0  0  0
   22.1413  -24.4082    0.0000 C   0  0  0  0  0  0  0  0  0  0  0  0
   21.3197  -24.4152    0.0000 C   0  0  0  0  0  0  0  0  0  0  0  0
   23.3824  -25.1170    0.0000 O   0  0  0  0  0  0  0  0  0  0  0  0
   23.7975  -25.8262    0.0000 C   0  0  0  0  0  0  0  0  0  0  0  0
  1  2  2  0
  2  3  1  0
  3  6  2  0
  5  4  2  0
  4  1  1  0
  5  6  1  0
  5 10  1  0
  6  7  1  0
  7  8  1  0
  8  9  1  0
  9 10  2  0
 11 12  2  0
 12 13  1  0
 13 14  2  0
 14 15  1  0
 15 16  2  0
 16 11  1  0
 10 11  1  0
 17 18  1  0
 18 19  1  0
 19 20  1  0
 20 21  1  0
 21 17  2  0
  9 17  1  0
  8 22  2  0
 20 23  1  0
 23 24  1  0
 23 25  2  0
 19 26  1  0
  1 27  1  0
 24 28  1  0
 26 29  2  0
 29 30  1  0
 30 31  2  0
 31 32  1  0
 32 33  2  0
 33 26  1  0
 31 34  1  0
 34 35  1  0
M  END
> <From>
www.bindingDB.org

> <BindingDB Reactant_set_id>
51293289

> <Ligand InChI>
InChI=1S/C28H24ClN3O3/c1-3-25(33)32-24(17-9-12-20(35-2)13-10-17)16-23(31-32)27-26(18-7-5-4-6-8-18)21-15-19(29)11-14-22(21)30-28(27)34/h4-15,24H,3,16H2,1-2H3,(H,30,34)

> <Ligand InChI Key>
LAVOKBSCOSIGER-UHFFFAOYSA-N

> <BindingDB MonomerID>
50527107

> <BindingDB Ligand Name>
CHEMBL4450955

> <Target Name>
DNA repair protein RAD51 homolog 1

> <Target Source Organism According to Curator or DataSource>
Homo sapiens

> <Ki (nM)>


> <IC50 (nM)>


> <Kd (nM)>
 11000

> <EC50 (nM)>


> <kon (M-1-s-1)>


> <koff (s-1)>


> <pH>


> <Temp C>


> <Curation/DataSource>
ChEMBL

> <Article DOI>
10.1021/acs.jmedchem.9b01526

> <BindingDB Entry DOI>
10.7270/Q2SF30MF

> <PMID>
32037829

> <PubChem AID>


> <Patent Number>


> <Authors>
Bagnolini, G; Milano, D; Manerba, M; Schipani, F; Ortega, JA; Gioia, D; Falchi, F; Balboni, A; Farabegoli, F; De Franco, F; Robertson, J; Pellicciari, R; Pallavicini, I; Peri, S; Minucci, S; Girotto, S; Di Stefano, G; Roberti, M; Cavalli, A

> <Date of publication>
3/12/2020

> <Date in BindingDB>
2/25/2021

> <Institution>
Istituto Italiano di Tecnologia

> <Link to Ligand in BindingDB>
http://www.bindingdb.org/bind/chemsearch/marvin/MolStructure.jsp?monomerid=50527107

> <Link to Ligand-Target Pair in BindingDB>
http://www.bindingdb.org/jsp/dbsearch/PrimarySearch_ki.jsp?energyterm=kJ/mole&tag=pol&polymerid=4676&target=DNA+repair+protein+RAD51+homolog+1&column=ki&startPg=0&Increment=50&submit=Search

> <Link to Ligand-Target Pair in BindingDB>
http://www.bindingdb.org/jsp/dbsearch/PrimarySearch_ki.jsp?energyterm=kJ/mole&tag=r21&monomerid=50527107&enzyme=DNA+repair+protein+RAD51+homolog+1&column=ki&startPg=0&Increment=50&submit=Search

> <Ligand HET ID in PDB>


> <PDB ID(s) for Ligand-Target Complex>


> <PubChem CID of Ligand>
4246127

> <PubChem SID of Ligand>
440735689

> <ChEBI ID of Ligand>


> <ChEMBL ID of Ligand>


> <DrugBank ID of Ligand>


> <IUPHAR_GRAC ID of Ligand>


> <KEGG ID of Ligand>


> <ZINC ID of Ligand>


> <Number of Protein Chains in Target (bigger than 1 implies a multichain complex)>
1

> <BindingDB Target Chain Sequence>
MAMQMQLEANADTSVEEESFGPQPISRLEQCGINANDVKKLEEAGFHTVEAVAYAPKKELINIKGISEAKADKILAEAAKLVPMGFTTATEFHQRRSEIIQITTGSKELDKLLQGGIETGSITEMFGEFRTGKTQICHTLAVTCQLPIDRGGGEGKAMYIDTEGTFRPERLLAVAERYGLSGSDVLDNVAYARAFNTDHQTQLLYQASAMMVESRYALLIVDSATALYRTDYSGRGELSARQMHLARFLRMLLRLADEFGVAVVITNQVVAQVDGAAMFAADPKKPIGGNIIAHASTTRLYLRKGRGETRICKIYDSPCLPEAEAMFAINADGVGDAKD

> <PDB ID(s) of Target Chain>
1N0W,5JZC,5NP7,5NWL,8BQ2,8BR2,8BSC

> <UniProt (SwissProt) Recommended Name of Target Chain>
DNA repair protein RAD51 homolog 1

> <UniProt (SwissProt) Entry Name of Target Chain>
RAD51_HUMAN

> <UniProt (SwissProt) Primary ID of Target Chain>
Q06609

> <UniProt (SwissProt) Secondary ID(s) of Target Chain>
B0FXP0 B2R8T6 Q6FHX9 Q6ZNA8 Q9BV60

> <UniProt (SwissProt) Alternative ID(s) of Target Chain>


> <UniProt (TrEMBL) Submitted Name of Target Chain>


> <UniProt (TrEMBL) Entry Name of Target Chain>


> <UniProt (TrEMBL) Primary ID of Target Chain>


> <UniProt (TrEMBL) Secondary ID(s) of Target Chain>


> <UniProt (TrEMBL) Alternative ID(s) of Target Chain>


$$$$

  SciTegic09081514162D

 23 25  0  0  0  0            999 V2000
   -2.3155    0.7475    0.0000 C   0  0
   -2.3155   -0.7475    0.0000 C   0  0
   -1.0028   -1.5132    0.0000 C   0  0
   -1.0028    1.5132    0.0000 C   0  0
    0.2917    0.7475    0.0000 C   0  0
    0.2917   -0.7475    0.0000 C   0  0
    1.7138   -1.2033    0.0000 N   0  0
    2.5889    0.0182    0.0000 C   0  0
    1.7138    1.2033    0.0000 C   0  0
    2.1812    2.6271    0.0000 C   0  0
    3.6500    2.9355    0.0000 C   0  0  1  0  0  0
    4.1182    4.3614    0.0000 C   0  0
    4.4505    2.0415    0.0000 N   0  0
    3.3178    5.2555    0.0000 O   0  0
    5.5870    4.6698    0.0000 O   0  0
    6.0553    6.0958    0.0000 C   0  0
    7.5241    6.4042    0.0000 C   0  0
    7.9923    7.8301    0.0000 C   0  0
    9.4598    8.1405    0.0000 C   0  0
    9.9249    9.5665    0.0000 C   0  0
    8.9224   10.6823    0.0000 C   0  0
    7.4549   10.3721    0.0000 C   0  0
    6.9898    8.9460    0.0000 C   0  0
  1  2  2  0
  2  3  1  0
  3  6  2  0
  5  4  2  0
  4  1  1  0
  5  6  1  0
  6  7  1  0
  7  8  1  0
  8  9  2  0
  9  5  1  0
  9 10  1  0
 11 10  1  1
 11 12  1  0
 11 13  1  0
 12 14  2  0
 12 15  1  0
 15 16  1  0
 16 17  1  0
 17 18  1  0
 18 19  2  0
 19 20  1  0
 20 21  2  0
 21 22  1  0
 22 23  2  0
 23 18  1  0
M  END
> <From>
www.bindingDB.org

> <BindingDB Reactant_set_id>
50338914

> <Ligand InChI>
InChI=1S/C19H20N2O2/c20-17(12-15-13-21-18-9-5-4-8-16(15)18)19(22)23-11-10-14-6-2-1-3-7-14/h1-9,13,17,21H,10-12,20H2/t17-/m0/s1

> <Ligand InChI Key>
NYKFOWIYHJJZSZ-KRWDZBQOSA-N

> <BindingDB MonomerID>
50088346

> <BindingDB Ligand Name>
CHEMBL3427779

> <Target Name>
DNA repair protein RAD51 homolog 1

> <Target Source Organism According to Curator or DataSource>
Homo sapiens

> <Ki (nM)>


> <IC50 (nM)>


> <Kd (nM)>
 35000

> <EC50 (nM)>


> <kon (M-1-s-1)>


> <koff (s-1)>


> <pH>


> <Temp C>


> <Curation/DataSource>
ChEMBL

> <Article DOI>
10.1016/j.bmcl.2015.04.089

> <BindingDB Entry DOI>
10.7270/Q2SF2XVC

> <PMID>
25971770

> <PubChem AID>


> <Patent Number>


> <Authors>
Magee, TV

> <Date of publication>
5/25/2015

> <Date in BindingDB>
5/7/2016

> <Institution>
Pfizer Inc

> <Link to Ligand in BindingDB>
http://www.bindingdb.org/bind/chemsearch/marvin/MolStructure.jsp?monomerid=50088346

> <Link to Ligand-Target Pair in BindingDB>
http://www.bindingdb.org/jsp/dbsearch/PrimarySearch_ki.jsp?energyterm=kJ/mole&tag=pol&polymerid=4676&target=DNA+repair+protein+RAD51+homolog+1&column=ki&startPg=0&Increment=50&submit=Search

> <Link to Ligand-Target Pair in BindingDB>
http://www.bindingdb.org/jsp/dbsearch/PrimarySearch_ki.jsp?energyterm=kJ/mole&tag=r21&monomerid=50088346&enzyme=DNA+repair+protein+RAD51+homolog+1&column=ki&startPg=0&Increment=50&submit=Search

> <Ligand HET ID in PDB>


> <PDB ID(s) for Ligand-Target Complex>


> <PubChem CID of Ligand>
118738035

> <PubChem SID of Ligand>
103987270

> <ChEBI ID of Ligand>


> <ChEMBL ID of Ligand>
CHEMBL3427779

> <DrugBank ID of Ligand>


> <IUPHAR_GRAC ID of Ligand>


> <KEGG ID of Ligand>
C03317

> <ZINC ID of Ligand>
ZINC13451162

> <Number of Protein Chains in Target (bigger than 1 implies a multichain complex)>
1

> <BindingDB Target Chain Sequence>
MAMQMQLEANADTSVEEESFGPQPISRLEQCGINANDVKKLEEAGFHTVEAVAYAPKKELINIKGISEAKADKILAEAAKLVPMGFTTATEFHQRRSEIIQITTGSKELDKLLQGGIETGSITEMFGEFRTGKTQICHTLAVTCQLPIDRGGGEGKAMYIDTEGTFRPERLLAVAERYGLSGSDVLDNVAYARAFNTDHQTQLLYQASAMMVESRYALLIVDSATALYRTDYSGRGELSARQMHLARFLRMLLRLADEFGVAVVITNQVVAQVDGAAMFAADPKKPIGGNIIAHASTTRLYLRKGRGETRICKIYDSPCLPEAEAMFAINADGVGDAKD

> <PDB ID(s) of Target Chain>
1N0W,5JZC,5NP7,5NWL,8BQ2,8BR2,8BSC

> <UniProt (SwissProt) Recommended Name of Target Chain>
DNA repair protein RAD51 homolog 1

> <UniProt (SwissProt) Entry Name of Target Chain>
RAD51_HUMAN

> <UniProt (SwissProt) Primary ID of Target Chain>
Q06609

> <UniProt (SwissProt) Secondary ID(s) of Target Chain>
B0FXP0 B2R8T6 Q6FHX9 Q6ZNA8 Q9BV60

> <UniProt (SwissProt) Alternative ID(s) of Target Chain>


> <UniProt (TrEMBL) Submitted Name of Target Chain>


> <UniProt (TrEMBL) Entry Name of Target Chain>


> <UniProt (TrEMBL) Primary ID of Target Chain>


> <UniProt (TrEMBL) Secondary ID(s) of Target Chain>


> <UniProt (TrEMBL) Alternative ID(s) of Target Chain>


$$$$

  Mrv0541 11191421332D          

 16 17  0  0  0  0            999 V2000
   -0.2652   -0.9723    0.0000 C   0  0  0  0  0  0  0  0  0  0  0  0
   -0.9796   -1.3848    0.0000 C   0  0  0  0  0  0  0  0  0  0  0  0
   -0.9796   -2.2098    0.0000 C   0  0  0  0  0  0  0  0  0  0  0  0
   -0.2652   -2.6223    0.0000 C   0  0  0  0  0  0  0  0  0  0  0  0
    0.4493   -1.3848    0.0000 C   0  0  0  0  0  0  0  0  0  0  0  0
    1.2339   -1.1299    0.0000 C   0  0  0  0  0  0  0  0  0  0  0  0
    0.4493   -2.2098    0.0000 C   0  0  0  0  0  0  0  0  0  0  0  0
    1.2339   -2.4647    0.0000 N   0  0  0  0  0  0  0  0  0  0  0  0
    1.7188   -1.7973    0.0000 C   0  0  0  0  0  0  0  0  0  0  0  0
    1.6464   -0.4154    0.0000 C   0  0  0  0  0  0  0  0  0  0  0  0
    2.4714   -0.4154    0.0000 C   0  0  1  0  0  0  0  0  0  0  0  0
    2.8839    0.2990    0.0000 C   0  0  0  0  0  0  0  0  0  0  0  0
    3.7089    0.2990    0.0000 O   0  0  0  0  0  0  0  0  0  0  0  0
    2.4714    1.0135    0.0000 O   0  0  0  0  0  0  0  0  0  0  0  0
    4.1214    1.0135    0.0000 C   0  0  0  0  0  0  0  0  0  0  0  0
    2.8839   -1.1299    0.0000 N   0  0  0  0  0  0  0  0  0  0  0  0
  1  2  1  0  0  0  0
  1  5  2  0  0  0  0
  2  3  2  0  0  0  0
  3  4  1  0  0  0  0
  4  7  2  0  0  0  0
  6  5  1  0  0  0  0
  6  9  2  0  0  0  0
  7  8  1  0  0  0  0
  8  9  1  0  0  0  0
  5  7  1  0  0  0  0
  6 10  1  0  0  0  0
 11 10  1  0  0  0  0
 11 12  1  0  0  0  0
 12 13  1  0  0  0  0
 12 14  2  0  0  0  0
 13 15  1  0  0  0  0
 11 16  1  1  0  0  0
M  END
> <From>
www.bindingDB.org

> <BindingDB Reactant_set_id>
50338915

> <Ligand InChI>
InChI=1S/C12H14N2O2/c1-16-12(15)10(13)6-8-7-14-11-5-3-2-4-9(8)11/h2-5,7,10,14H,6,13H2,1H3/t10-/m0/s1

> <Ligand InChI Key>
KCUNTYMNJVXYKZ-JTQLQIEISA-N

> <BindingDB MonomerID>
93044

> <BindingDB Ligand Name>
L-Methyl ester tryptophan, 8

> <Target Name>
DNA repair protein RAD51 homolog 1

> <Target Source Organism According to Curator or DataSource>
Homo sapiens

> <Ki (nM)>


> <IC50 (nM)>


> <Kd (nM)>
 570000

> <EC50 (nM)>


> <kon (M-1-s-1)>


> <koff (s-1)>


> <pH>


> <Temp C>


> <Curation/DataSource>
ChEMBL

> <Article DOI>
10.1016/j.bmcl.2015.04.089

> <BindingDB Entry DOI>
10.7270/Q2SF2XVC

> <PMID>
25971770

> <PubChem AID>


> <Patent Number>


> <Authors>
Magee, TV

> <Date of publication>
5/25/2015

> <Date in BindingDB>
5/7/2016

> <Institution>
Pfizer Inc

> <Link to Ligand in BindingDB>
http://www.bindingdb.org/bind/chemsearch/marvin/MolStructure.jsp?monomerid=93044

> <Link to Ligand-Target Pair in BindingDB>
http://www.bindingdb.org/jsp/dbsearch/PrimarySearch_ki.jsp?energyterm=kJ/mole&tag=pol&polymerid=4676&target=DNA+repair+protein+RAD51+homolog+1&column=ki&startPg=0&Increment=50&submit=Search

> <Link to Ligand-Target Pair in BindingDB>
http://www.bindingdb.org/jsp/dbsearch/PrimarySearch_ki.jsp?energyterm=kJ/mole&tag=r21&monomerid=93044&enzyme=DNA+repair+protein+RAD51+homolog+1&column=ki&startPg=0&Increment=50&submit=Search

> <Ligand HET ID in PDB>
TR7

> <PDB ID(s) for Ligand-Target Complex>
4B2L

> <PubChem CID of Ligand>
77980

> <PubChem SID of Ligand>
163340179

> <ChEBI ID of Ligand>


> <ChEMBL ID of Ligand>


> <DrugBank ID of Ligand>


> <IUPHAR_GRAC ID of Ligand>


> <KEGG ID of Ligand>
C03317

> <ZINC ID of Ligand>
ZINC34781220

> <Number of Protein Chains in Target (bigger than 1 implies a multichain complex)>
1

> <BindingDB Target Chain Sequence>
MAMQMQLEANADTSVEEESFGPQPISRLEQCGINANDVKKLEEAGFHTVEAVAYAPKKELINIKGISEAKADKILAEAAKLVPMGFTTATEFHQRRSEIIQITTGSKELDKLLQGGIETGSITEMFGEFRTGKTQICHTLAVTCQLPIDRGGGEGKAMYIDTEGTFRPERLLAVAERYGLSGSDVLDNVAYARAFNTDHQTQLLYQASAMMVESRYALLIVDSATALYRTDYSGRGELSARQMHLARFLRMLLRLADEFGVAVVITNQVVAQVDGAAMFAADPKKPIGGNIIAHASTTRLYLRKGRGETRICKIYDSPCLPEAEAMFAINADGVGDAKD

> <PDB ID(s) of Target Chain>
1N0W,5JZC,5NP7,5NWL,8BQ2,8BR2,8BSC

> <UniProt (SwissProt) Recommended Name of Target Chain>
DNA repair protein RAD51 homolog 1

> <UniProt (SwissProt) Entry Name of Target Chain>
RAD51_HUMAN

> <UniProt (SwissProt) Primary ID of Target Chain>
Q06609

> <UniProt (SwissProt) Secondary ID(s) of Target Chain>
B0FXP0 B2R8T6 Q6FHX9 Q6ZNA8 Q9BV60

> <UniProt (SwissProt) Alternative ID(s) of Target Chain>


> <UniProt (TrEMBL) Submitted Name of Target Chain>


> <UniProt (TrEMBL) Entry Name of Target Chain>


> <UniProt (TrEMBL) Primary ID of Target Chain>


> <UniProt (TrEMBL) Secondary ID(s) of Target Chain>


> <UniProt (TrEMBL) Alternative ID(s) of Target Chain>


$$$$

  Mrv0541 11191421332D          

 16 17  0  0  0  0            999 V2000
   -0.2652   -0.9723    0.0000 C   0  0  0  0  0  0  0  0  0  0  0  0
   -0.9796   -1.3848    0.0000 C   0  0  0  0  0  0  0  0  0  0  0  0
   -0.9796   -2.2098    0.0000 C   0  0  0  0  0  0  0  0  0  0  0  0
   -0.2652   -2.6223    0.0000 C   0  0  0  0  0  0  0  0  0  0  0  0
    0.4493   -1.3848    0.0000 C   0  0  0  0  0  0  0  0  0  0  0  0
    1.2339   -1.1299    0.0000 C   0  0  0  0  0  0  0  0  0  0  0  0
    0.4493   -2.2098    0.0000 C   0  0  0  0  0  0  0  0  0  0  0  0
    1.2339   -2.4647    0.0000 N   0  0  0  0  0  0  0  0  0  0  0  0
    1.7188   -1.7973    0.0000 C   0  0  0  0  0  0  0  0  0  0  0  0
    1.6464   -0.4154    0.0000 C   0  0  0  0  0  0  0  0  0  0  0  0
    2.4714   -0.4154    0.0000 C   0  0  1  0  0  0  0  0  0  0  0  0
    2.8839    0.2990    0.0000 C   0  0  0  0  0  0  0  0  0  0  0  0
    3.7089    0.2990    0.0000 O   0  0  0  0  0  0  0  0  0  0  0  0
    2.4714    1.0135    0.0000 O   0  0  0  0  0  0  0  0  0  0  0  0
    4.1214    1.0135    0.0000 C   0  0  0  0  0  0  0  0  0  0  0  0
    2.8839   -1.1299    0.0000 N   0  0  0  0  0  0  0  0  0  0  0  0
  1  2  1  0  0  0  0
  1  5  2  0  0  0  0
  2  3  2  0  0  0  0
  3  4  1  0  0  0  0
  4  7  2  0  0  0  0
  6  5  1  0  0  0  0
  6  9  2  0  0  0  0
  7  8  1  0  0  0  0
  8  9  1  0  0  0  0
  5  7  1  0  0  0  0
  6 10  1  0  0  0  0
 11 10  1  0  0  0  0
 11 12  1  0  0  0  0
 12 13  1  0  0  0  0
 12 14  2  0  0  0  0
 13 15  1  0  0  0  0
 11 16  1  1  0  0  0
M  END
> <From>
www.bindingDB.org

> <BindingDB Reactant_set_id>
50523324

> <Ligand InChI>
InChI=1S/C12H14N2O2/c1-16-12(15)10(13)6-8-7-14-11-5-3-2-4-9(8)11/h2-5,7,10,14H,6,13H2,1H3/t10-/m0/s1

> <Ligand InChI Key>
KCUNTYMNJVXYKZ-JTQLQIEISA-N

> <BindingDB MonomerID>
93044

> <BindingDB Ligand Name>
L-Methyl ester tryptophan, 8

> <Target Name>
DNA repair protein RAD51 homolog 1

> <Target Source Organism According to Curator or DataSource>
Homo sapiens

> <Ki (nM)>


> <IC50 (nM)>


> <Kd (nM)>
 570000

> <EC50 (nM)>


> <kon (M-1-s-1)>


> <koff (s-1)>


> <pH>


> <Temp C>


> <Curation/DataSource>
ChEMBL

> <Article DOI>
10.1021/acs.jmedchem.6b01123

> <BindingDB Entry DOI>
10.7270/Q2R78H5B

> <PMID>
27739691

> <PubChem AID>


> <Patent Number>


> <Authors>
Johnson, CN; Erlanson, DA; Murray, CW; Rees, DC

> <Date of publication>
1/12/2017

> <Date in BindingDB>
7/15/2018

> <Institution>
Astex Pharmaceuticals

> <Link to Ligand in BindingDB>
http://www.bindingdb.org/bind/chemsearch/marvin/MolStructure.jsp?monomerid=93044

> <Link to Ligand-Target Pair in BindingDB>
http://www.bindingdb.org/jsp/dbsearch/PrimarySearch_ki.jsp?energyterm=kJ/mole&tag=pol&polymerid=4676&target=DNA+repair+protein+RAD51+homolog+1&column=ki&startPg=0&Increment=50&submit=Search

> <Link to Ligand-Target Pair in BindingDB>
http://www.bindingdb.org/jsp/dbsearch/PrimarySearch_ki.jsp?energyterm=kJ/mole&tag=r21&monomerid=93044&enzyme=DNA+repair+protein+RAD51+homolog+1&column=ki&startPg=0&Increment=50&submit=Search

> <Ligand HET ID in PDB>
TR7

> <PDB ID(s) for Ligand-Target Complex>
4B2L

> <PubChem CID of Ligand>
77980

> <PubChem SID of Ligand>
163340179

> <ChEBI ID of Ligand>


> <ChEMBL ID of Ligand>


> <DrugBank ID of Ligand>


> <IUPHAR_GRAC ID of Ligand>


> <KEGG ID of Ligand>
C03317

> <ZINC ID of Ligand>
ZINC34781220

> <Number of Protein Chains in Target (bigger than 1 implies a multichain complex)>
1

> <BindingDB Target Chain Sequence>
MAMQMQLEANADTSVEEESFGPQPISRLEQCGINANDVKKLEEAGFHTVEAVAYAPKKELINIKGISEAKADKILAEAAKLVPMGFTTATEFHQRRSEIIQITTGSKELDKLLQGGIETGSITEMFGEFRTGKTQICHTLAVTCQLPIDRGGGEGKAMYIDTEGTFRPERLLAVAERYGLSGSDVLDNVAYARAFNTDHQTQLLYQASAMMVESRYALLIVDSATALYRTDYSGRGELSARQMHLARFLRMLLRLADEFGVAVVITNQVVAQVDGAAMFAADPKKPIGGNIIAHASTTRLYLRKGRGETRICKIYDSPCLPEAEAMFAINADGVGDAKD

> <PDB ID(s) of Target Chain>
1N0W,5JZC,5NP7,5NWL,8BQ2,8BR2,8BSC

> <UniProt (SwissProt) Recommended Name of Target Chain>
DNA repair protein RAD51 homolog 1

> <UniProt (SwissProt) Entry Name of Target Chain>
RAD51_HUMAN

> <UniProt (SwissProt) Primary ID of Target Chain>
Q06609

> <UniProt (SwissProt) Secondary ID(s) of Target Chain>
B0FXP0 B2R8T6 Q6FHX9 Q6ZNA8 Q9BV60

> <UniProt (SwissProt) Alternative ID(s) of Target Chain>


> <UniProt (TrEMBL) Submitted Name of Target Chain>


> <UniProt (TrEMBL) Entry Name of Target Chain>


> <UniProt (TrEMBL) Primary ID of Target Chain>


> <UniProt (TrEMBL) Secondary ID(s) of Target Chain>


> <UniProt (TrEMBL) Alternative ID(s) of Target Chain>


$$$$
16054
  Mrv0541 11251415322D          

 10 11  0  0  0  0            999 V2000
    2.0930   -0.9875    0.0000 O   0  0  0  0  0  0  0  0  0  0  0  0
    5.0171    0.5014    0.0000 N   0  0  0  0  0  0  0  0  0  0  0  0
    4.2365   -0.5750    0.0000 C   0  0  0  0  0  0  0  0  0  0  0  0
    4.2365    0.2500    0.0000 C   0  0  0  0  0  0  0  0  0  0  0  0
    5.0171   -0.8265    0.0000 C   0  0  0  0  0  0  0  0  0  0  0  0
    3.5220   -0.9875    0.0000 C   0  0  0  0  0  0  0  0  0  0  0  0
    3.5220    0.6625    0.0000 C   0  0  0  0  0  0  0  0  0  0  0  0
    5.4986   -0.1625    0.0000 C   0  0  0  0  0  0  0  0  0  0  0  0
    2.8075   -0.5750    0.0000 C   0  0  0  0  0  0  0  0  0  0  0  0
    2.8075    0.2500    0.0000 C   0  0  0  0  0  0  0  0  0  0  0  0
  1  9  1  0  0  0  0
  2  4  1  0  0  0  0
  2  8  1  0  0  0  0
  3  4  1  0  0  0  0
  3  5  1  0  0  0  0
  3  6  2  0  0  0  0
  4  7  2  0  0  0  0
  5  8  2  0  0  0  0
  6  9  1  0  0  0  0
  7 10  1  0  0  0  0
  9 10  2  0  0  0  0
M  END
> <From>
www.bindingDB.org

> <BindingDB Reactant_set_id>
50338916

> <Ligand InChI>
InChI=1S/C8H7NO/c10-7-1-2-8-6(5-7)3-4-9-8/h1-5,9-10H

> <Ligand InChI Key>
LMIQERWZRIFWNZ-UHFFFAOYSA-N

> <BindingDB MonomerID>
32212

> <BindingDB Ligand Name>
1H-indol-5-ol::cid_16054

> <Target Name>
DNA repair protein RAD51 homolog 1

> <Target Source Organism According to Curator or DataSource>
Homo sapiens

> <Ki (nM)>


> <IC50 (nM)>


> <Kd (nM)>
 2100000

> <EC50 (nM)>


> <kon (M-1-s-1)>


> <koff (s-1)>


> <pH>


> <Temp C>


> <Curation/DataSource>
ChEMBL

> <Article DOI>
10.1016/j.bmcl.2015.04.089

> <BindingDB Entry DOI>
10.7270/Q2SF2XVC

> <PMID>
25971770

> <PubChem AID>


> <Patent Number>


> <Authors>
Magee, TV

> <Date of publication>
5/25/2015

> <Date in BindingDB>
5/7/2016

> <Institution>
Pfizer Inc

> <Link to Ligand in BindingDB>
http://www.bindingdb.org/bind/chemsearch/marvin/MolStructure.jsp?monomerid=32212

> <Link to Ligand-Target Pair in BindingDB>
http://www.bindingdb.org/jsp/dbsearch/PrimarySearch_ki.jsp?energyterm=kJ/mole&tag=pol&polymerid=4676&target=DNA+repair+protein+RAD51+homolog+1&column=ki&startPg=0&Increment=50&submit=Search

> <Link to Ligand-Target Pair in BindingDB>
http://www.bindingdb.org/jsp/dbsearch/PrimarySearch_ki.jsp?energyterm=kJ/mole&tag=r21&monomerid=32212&enzyme=DNA+repair+protein+RAD51+homolog+1&column=ki&startPg=0&Increment=50&submit=Search

> <Ligand HET ID in PDB>
5H1

> <PDB ID(s) for Ligand-Target Complex>
5N3P,3FUH,4B3C

> <PubChem CID of Ligand>
16054

> <PubChem SID of Ligand>
252615660

> <ChEBI ID of Ligand>
73398

> <ChEMBL ID of Ligand>


> <DrugBank ID of Ligand>


> <IUPHAR_GRAC ID of Ligand>
2295

> <KEGG ID of Ligand>


> <ZINC ID of Ligand>
ZINC00395637

> <Number of Protein Chains in Target (bigger than 1 implies a multichain complex)>
1

> <BindingDB Target Chain Sequence>
MAMQMQLEANADTSVEEESFGPQPISRLEQCGINANDVKKLEEAGFHTVEAVAYAPKKELINIKGISEAKADKILAEAAKLVPMGFTTATEFHQRRSEIIQITTGSKELDKLLQGGIETGSITEMFGEFRTGKTQICHTLAVTCQLPIDRGGGEGKAMYIDTEGTFRPERLLAVAERYGLSGSDVLDNVAYARAFNTDHQTQLLYQASAMMVESRYALLIVDSATALYRTDYSGRGELSARQMHLARFLRMLLRLADEFGVAVVITNQVVAQVDGAAMFAADPKKPIGGNIIAHASTTRLYLRKGRGETRICKIYDSPCLPEAEAMFAINADGVGDAKD

> <PDB ID(s) of Target Chain>
1N0W,5JZC,5NP7,5NWL,8BQ2,8BR2,8BSC

> <UniProt (SwissProt) Recommended Name of Target Chain>
DNA repair protein RAD51 homolog 1

> <UniProt (SwissProt) Entry Name of Target Chain>
RAD51_HUMAN

> <UniProt (SwissProt) Primary ID of Target Chain>
Q06609

> <UniProt (SwissProt) Secondary ID(s) of Target Chain>
B0FXP0 B2R8T6 Q6FHX9 Q6ZNA8 Q9BV60

> <UniProt (SwissProt) Alternative ID(s) of Target Chain>


> <UniProt (TrEMBL) Submitted Name of Target Chain>


> <UniProt (TrEMBL) Entry Name of Target Chain>


> <UniProt (TrEMBL) Primary ID of Target Chain>


> <UniProt (TrEMBL) Secondary ID(s) of Target Chain>


> <UniProt (TrEMBL) Alternative ID(s) of Target Chain>


$$$$
6470002
  Mrv0541 11251416042D          

 16 17  0  0  0  0            999 V2000
    4.5080    0.3965    0.0000 O   0  0  0  0  0  0  0  0  0  0  0  0
    1.6500   -2.0786    0.0000 O   0  0  0  0  0  0  0  0  0  0  0  0
    3.7935    1.6340    0.0000 N   0  0  0  0  0  0  0  0  0  0  0  0
    3.0790    0.3965    0.0000 N   0  0  0  0  0  0  0  0  0  0  0  0
    4.2060    2.9036    0.0000 C   0  0  0  0  0  0  0  0  0  0  0  0
    3.3810    2.9036    0.0000 C   0  0  0  0  0  0  0  0  0  0  0  0
    4.4610    2.1190    0.0000 C   0  0  0  0  0  0  0  0  0  0  0  0
    3.1261    2.1190    0.0000 C   0  0  0  0  0  0  0  0  0  0  0  0
    3.7935    0.8090    0.0000 C   0  0  0  0  0  0  0  0  0  0  0  0
    3.0790   -0.4285    0.0000 C   0  0  0  0  0  0  0  0  0  0  0  0
    2.3645   -0.8410    0.0000 C   0  0  0  0  0  0  0  0  0  0  0  0
    3.7935   -0.8410    0.0000 C   0  0  0  0  0  0  0  0  0  0  0  0
    2.3645   -1.6660    0.0000 C   0  0  0  0  0  0  0  0  0  0  0  0
    3.7935   -1.6660    0.0000 C   0  0  0  0  0  0  0  0  0  0  0  0
    3.0790   -2.0786    0.0000 C   0  0  0  0  0  0  0  0  0  0  0  0
    1.6500   -2.9036    0.0000 C   0  0  0  0  0  0  0  0  0  0  0  0
  1  9  2  0  0  0  0
  2 13  1  0  0  0  0
  2 16  1  0  0  0  0
  3  7  1  0  0  0  0
  3  8  1  0  0  0  0
  3  9  1  0  0  0  0
  4  9  1  0  0  0  0
  4 10  1  0  0  0  0
  5  6  1  0  0  0  0
  5  7  1  0  0  0  0
  6  8  1  0  0  0  0
 10 11  2  0  0  0  0
 10 12  1  0  0  0  0
 11 13  1  0  0  0  0
 12 14  2  0  0  0  0
 13 15  2  0  0  0  0
 14 15  1  0  0  0  0
M  END
> <From>
www.bindingDB.org

> <BindingDB Reactant_set_id>
95226

> <Ligand InChI>
InChI=1S/C12H16N2O2/c1-16-11-6-4-5-10(9-11)13-12(15)14-7-2-3-8-14/h4-6,9H,2-3,7-8H2,1H3,(H,13,15)

> <Ligand InChI Key>
GOZSMQGQDZSVEU-UHFFFAOYSA-N

> <BindingDB MonomerID>
51341

> <BindingDB Ligand Name>
MLS000679550::N-(3-methoxyphenyl)-1-pyrrolidinecarboxamide::N-(3-methoxyphenyl)pyrrolidine-1-carboxamide::SMR000297805::cid_6470002

> <Target Name>
DNA repair protein RAD51 homolog 1

> <Target Source Organism According to Curator or DataSource>
Homo sapiens

> <Ki (nM)>


> <IC50 (nM)>
 53000

> <Kd (nM)>


> <EC50 (nM)>


> <kon (M-1-s-1)>


> <koff (s-1)>


> <pH>


> <Temp C>


> <Curation/DataSource>
PubChem

> <Article DOI>


> <BindingDB Entry DOI>
10.7270/Q2QN6558

> <PMID>


> <PubChem AID>
aid1437

> <Patent Number>


> <Authors>
PubChem, PC

> <Date of publication>
11/25/2008

> <Date in BindingDB>
5/31/2011

> <Institution>
PCMD

> <Link to Ligand in BindingDB>
http://www.bindingdb.org/bind/chemsearch/marvin/MolStructure.jsp?monomerid=51341

> <Link to Ligand-Target Pair in BindingDB>
http://www.bindingdb.org/jsp/dbsearch/PrimarySearch_ki.jsp?energyterm=kJ/mole&tag=pol&polymerid=4676&target=DNA+repair+protein+RAD51+homolog+1&column=ki&startPg=0&Increment=50&submit=Search

> <Link to Ligand-Target Pair in BindingDB>
http://www.bindingdb.org/jsp/dbsearch/PrimarySearch_ki.jsp?energyterm=kJ/mole&tag=r21&monomerid=51341&enzyme=DNA+repair+protein+RAD51+homolog+1&column=ki&startPg=0&Increment=50&submit=Search

> <Ligand HET ID in PDB>


> <PDB ID(s) for Ligand-Target Complex>


> <PubChem CID of Ligand>
6470002

> <PubChem SID of Ligand>
252631564

> <ChEBI ID of Ligand>


> <ChEMBL ID of Ligand>


> <DrugBank ID of Ligand>


> <IUPHAR_GRAC ID of Ligand>


> <KEGG ID of Ligand>


> <ZINC ID of Ligand>
ZINC00117826

> <Number of Protein Chains in Target (bigger than 1 implies a multichain complex)>
1

> <BindingDB Target Chain Sequence>
MAMQMQLEANADTSVEEESFGPQPISRLEQCGINANDVKKLEEAGFHTVEAVAYAPKKELINIKGISEAKADKILAEAAKLVPMGFTTATEFHQRRSEIIQITTGSKELDKLLQGGIETGSITEMFGEFRTGKTQICHTLAVTCQLPIDRGGGEGKAMYIDTEGTFRPERLLAVAERYGLSGSDVLDNVAYARAFNTDHQTQLLYQASAMMVESRYALLIVDSATALYRTDYSGRGELSARQMHLARFLRMLLRLADEFGVAVVITNQVVAQVDGAAMFAADPKKPIGGNIIAHASTTRLYLRKGRGETRICKIYDSPCLPEAEAMFAINADGVGDAKD

> <PDB ID(s) of Target Chain>
1N0W,5JZC,5NP7,5NWL,8BQ2,8BR2,8BSC

> <UniProt (SwissProt) Recommended Name of Target Chain>
DNA repair protein RAD51 homolog 1

> <UniProt (SwissProt) Entry Name of Target Chain>
RAD51_HUMAN

> <UniProt (SwissProt) Primary ID of Target Chain>
Q06609

> <UniProt (SwissProt) Secondary ID(s) of Target Chain>
B0FXP0 B2R8T6 Q6FHX9 Q6ZNA8 Q9BV60

> <UniProt (SwissProt) Alternative ID(s) of Target Chain>


> <UniProt (TrEMBL) Submitted Name of Target Chain>


> <UniProt (TrEMBL) Entry Name of Target Chain>


> <UniProt (TrEMBL) Primary ID of Target Chain>


> <UniProt (TrEMBL) Secondary ID(s) of Target Chain>


> <UniProt (TrEMBL) Alternative ID(s) of Target Chain>


$$$$
1246200
  Mrv0541 11251416042D          

 18 19  0  0  0  0            999 V2000
    5.3158    1.9641    0.0000 Cl  0  0  0  0  0  0  0  0  0  0  0  0
    2.4751   -1.9398    0.0000 S   0  0  0  0  0  0  0  0  0  0  0  0
    3.9433    1.4372    0.0000 S   0  0  0  0  0  0  0  0  0  0  0  0
    1.6500   -1.9398    0.0000 O   0  0  0  0  0  0  0  0  0  0  0  0
    3.3001   -1.9398    0.0000 O   0  0  0  0  0  0  0  0  0  0  0  0
    1.7606    1.7728    0.0000 O   0  0  0  0  0  0  0  0  0  0  0  0
    2.4751   -1.1148    0.0000 N   0  0  0  0  0  0  0  0  0  0  0  0
    2.4751    0.5353    0.0000 N   0  0  0  0  0  0  0  0  0  0  0  0
    1.7606   -0.7023    0.0000 C   0  0  0  0  0  0  0  0  0  0  0  0
    3.1895   -0.7023    0.0000 C   0  0  0  0  0  0  0  0  0  0  0  0
    1.7606    0.1228    0.0000 C   0  0  0  0  0  0  0  0  0  0  0  0
    3.1895    0.1228    0.0000 C   0  0  0  0  0  0  0  0  0  0  0  0
    2.4751    1.3603    0.0000 C   0  0  0  0  0  0  0  0  0  0  0  0
    2.4751   -2.7648    0.0000 C   0  0  0  0  0  0  0  0  0  0  0  0
    3.1895    1.7728    0.0000 C   0  0  0  0  0  0  0  0  0  0  0  0
    3.2758    2.5933    0.0000 C   0  0  0  0  0  0  0  0  0  0  0  0
    4.0828    2.7648    0.0000 C   0  0  0  0  0  0  0  0  0  0  0  0
    4.4953    2.0503    0.0000 C   0  0  0  0  0  0  0  0  0  0  0  0
  1 18  1  0  0  0  0
  2  4  2  0  0  0  0
  2  5  2  0  0  0  0
  2  7  1  0  0  0  0
  2 14  1  0  0  0  0
  3 15  1  0  0  0  0
  3 18  1  0  0  0  0
  6 13  2  0  0  0  0
  7  9  1  0  0  0  0
  7 10  1  0  0  0  0
  8 11  1  0  0  0  0
  8 12  1  0  0  0  0
  8 13  1  0  0  0  0
  9 11  1  0  0  0  0
 10 12  1  0  0  0  0
 13 15  1  0  0  0  0
 15 16  2  0  0  0  0
 16 17  1  0  0  0  0
 17 18  2  0  0  0  0
M  END
> <From>
www.bindingDB.org

> <BindingDB Reactant_set_id>
95227

> <Ligand InChI>
InChI=1S/C10H13ClN2O3S2/c1-18(15,16)13-6-4-12(5-7-13)10(14)8-2-3-9(11)17-8/h2-3H,4-7H2,1H3

> <Ligand InChI Key>
BUDPMPLRCIFFKS-UHFFFAOYSA-N

> <BindingDB MonomerID>
51342

> <BindingDB Ligand Name>
(5-chloranylthiophen-2-yl)-(4-methylsulfonylpiperazin-1-yl)methanone::(5-chloro-2-thienyl)-(4-mesylpiperazino)methanone::(5-chloro-2-thiophenyl)-(4-methylsulfonyl-1-piperazinyl)methanone::(5-chlorothiophen-2-yl)-(4-methylsulfonylpiperazin-1-yl)methanone::1-[(5-chloro-2-thienyl)carbonyl]-4-(methylsulfonyl)piperazine::MLS000676319::SMR000300759::cid_1246200

> <Target Name>
DNA repair protein RAD51 homolog 1

> <Target Source Organism According to Curator or DataSource>
Homo sapiens

> <Ki (nM)>


> <IC50 (nM)>
 53000

> <Kd (nM)>


> <EC50 (nM)>


> <kon (M-1-s-1)>


> <koff (s-1)>


> <pH>


> <Temp C>


> <Curation/DataSource>
PubChem

> <Article DOI>


> <BindingDB Entry DOI>
10.7270/Q2QN6558

> <PMID>


> <PubChem AID>
aid1437

> <Patent Number>


> <Authors>
PubChem, PC

> <Date of publication>
11/25/2008

> <Date in BindingDB>
5/31/2011

> <Institution>
PCMD

> <Link to Ligand in BindingDB>
http://www.bindingdb.org/bind/chemsearch/marvin/MolStructure.jsp?monomerid=51342

> <Link to Ligand-Target Pair in BindingDB>
http://www.bindingdb.org/jsp/dbsearch/PrimarySearch_ki.jsp?energyterm=kJ/mole&tag=pol&polymerid=4676&target=DNA+repair+protein+RAD51+homolog+1&column=ki&startPg=0&Increment=50&submit=Search

> <Link to Ligand-Target Pair in BindingDB>
http://www.bindingdb.org/jsp/dbsearch/PrimarySearch_ki.jsp?energyterm=kJ/mole&tag=r21&monomerid=51342&enzyme=DNA+repair+protein+RAD51+homolog+1&column=ki&startPg=0&Increment=50&submit=Search

> <Ligand HET ID in PDB>


> <PDB ID(s) for Ligand-Target Complex>


> <PubChem CID of Ligand>
1246200

> <PubChem SID of Ligand>
252631565

> <ChEBI ID of Ligand>


> <ChEMBL ID of Ligand>


> <DrugBank ID of Ligand>


> <IUPHAR_GRAC ID of Ligand>


> <KEGG ID of Ligand>


> <ZINC ID of Ligand>
ZINC02852084

> <Number of Protein Chains in Target (bigger than 1 implies a multichain complex)>
1

> <BindingDB Target Chain Sequence>
MAMQMQLEANADTSVEEESFGPQPISRLEQCGINANDVKKLEEAGFHTVEAVAYAPKKELINIKGISEAKADKILAEAAKLVPMGFTTATEFHQRRSEIIQITTGSKELDKLLQGGIETGSITEMFGEFRTGKTQICHTLAVTCQLPIDRGGGEGKAMYIDTEGTFRPERLLAVAERYGLSGSDVLDNVAYARAFNTDHQTQLLYQASAMMVESRYALLIVDSATALYRTDYSGRGELSARQMHLARFLRMLLRLADEFGVAVVITNQVVAQVDGAAMFAADPKKPIGGNIIAHASTTRLYLRKGRGETRICKIYDSPCLPEAEAMFAINADGVGDAKD

> <PDB ID(s) of Target Chain>
1N0W,5JZC,5NP7,5NWL,8BQ2,8BR2,8BSC

> <UniProt (SwissProt) Recommended Name of Target Chain>
DNA repair protein RAD51 homolog 1

> <UniProt (SwissProt) Entry Name of Target Chain>
RAD51_HUMAN

> <UniProt (SwissProt) Primary ID of Target Chain>
Q06609

> <UniProt (SwissProt) Secondary ID(s) of Target Chain>
B0FXP0 B2R8T6 Q6FHX9 Q6ZNA8 Q9BV60

> <UniProt (SwissProt) Alternative ID(s) of Target Chain>


> <UniProt (TrEMBL) Submitted Name of Target Chain>


> <UniProt (TrEMBL) Entry Name of Target Chain>


> <UniProt (TrEMBL) Primary ID of Target Chain>


> <UniProt (TrEMBL) Secondary ID(s) of Target Chain>


> <UniProt (TrEMBL) Alternative ID(s) of Target Chain>


$$$$
6470341
  Mrv0541 11251416042D          

 20 21  0  0  0  0            999 V2000
    1.6500   -2.2688    0.0000 F   0  0  0  0  0  0  0  0  0  0  0  0
    3.0789   -3.0938    0.0000 F   0  0  0  0  0  0  0  0  0  0  0  0
    5.2223    0.6188    0.0000 O   0  0  0  0  0  0  0  0  0  0  0  0
    4.5079    0.2063    0.0000 O   0  0  0  0  0  0  0  0  0  0  0  0
    3.7934    1.4438    0.0000 N   0  0  0  0  0  0  0  0  0  0  0  0
    3.0789    0.2063    0.0000 N   0  0  0  0  0  0  0  0  0  0  0  0
    4.5079    1.8563    0.0000 C   0  0  0  0  0  0  0  0  0  0  0  0
    5.2223    1.4438    0.0000 C   0  0  0  0  0  0  0  0  0  0  0  0
    3.0789   -0.6188    0.0000 C   0  0  0  0  0  0  0  0  0  0  0  0
    4.5079    2.6812    0.0000 C   0  0  0  0  0  0  0  0  0  0  0  0
    3.7934    0.6188    0.0000 C   0  0  0  0  0  0  0  0  0  0  0  0
    5.9369    1.8563    0.0000 C   0  0  0  0  0  0  0  0  0  0  0  0
    2.3644   -1.0313    0.0000 C   0  0  0  0  0  0  0  0  0  0  0  0
    3.7934   -1.0313    0.0000 C   0  0  0  0  0  0  0  0  0  0  0  0
    5.2223    3.0938    0.0000 C   0  0  0  0  0  0  0  0  0  0  0  0
    5.9369    2.6812    0.0000 C   0  0  0  0  0  0  0  0  0  0  0  0
    2.3644   -1.8563    0.0000 C   0  0  0  0  0  0  0  0  0  0  0  0
    3.7934   -1.8563    0.0000 C   0  0  0  0  0  0  0  0  0  0  0  0
    3.0789   -2.2688    0.0000 C   0  0  0  0  0  0  0  0  0  0  0  0
    5.9369    0.2063    0.0000 C   0  0  0  0  0  0  0  0  0  0  0  0
  1 17  1  0  0  0  0
  2 19  1  0  0  0  0
  3  8  1  0  0  0  0
  3 20  1  0  0  0  0
  4 11  2  0  0  0  0
  5  7  1  0  0  0  0
  5 11  1  0  0  0  0
  6  9  1  0  0  0  0
  6 11  1  0  0  0  0
  7  8  2  0  0  0  0
  7 10  1  0  0  0  0
  8 12  1  0  0  0  0
  9 13  2  0  0  0  0
  9 14  1  0  0  0  0
 10 15  2  0  0  0  0
 12 16  2  0  0  0  0
 13 17  1  0  0  0  0
 14 18  2  0  0  0  0
 15 16  1  0  0  0  0
 17 19  2  0  0  0  0
 18 19  1  0  0  0  0
M  END
> <From>
www.bindingDB.org

> <BindingDB Reactant_set_id>
95228

> <Ligand InChI>
InChI=1S/C14H12F2N2O2/c1-20-13-5-3-2-4-12(13)18-14(19)17-9-6-7-10(15)11(16)8-9/h2-8H,1H3,(H2,17,18,19)

> <Ligand InChI Key>
RXLYSKWBMDFPJL-UHFFFAOYSA-N

> <BindingDB MonomerID>
51343

> <BindingDB Ligand Name>
1-(3,4-difluorophenyl)-3-(2-methoxyphenyl)urea::1-[3,4-bis(fluoranyl)phenyl]-3-(2-methoxyphenyl)urea::MLS000679573::N-(3,4-difluorophenyl)-N&#39;-(2-methoxyphenyl)urea::SMR000297823::cid_6470341

> <Target Name>
DNA repair protein RAD51 homolog 1

> <Target Source Organism According to Curator or DataSource>
Homo sapiens

> <Ki (nM)>


> <IC50 (nM)>
 53000

> <Kd (nM)>


> <EC50 (nM)>


> <kon (M-1-s-1)>


> <koff (s-1)>


> <pH>


> <Temp C>


> <Curation/DataSource>
PubChem

> <Article DOI>


> <BindingDB Entry DOI>
10.7270/Q2QN6558

> <PMID>


> <PubChem AID>
aid1437

> <Patent Number>


> <Authors>
PubChem, PC

> <Date of publication>
11/25/2008

> <Date in BindingDB>
5/31/2011

> <Institution>
PCMD

> <Link to Ligand in BindingDB>
http://www.bindingdb.org/bind/chemsearch/marvin/MolStructure.jsp?monomerid=51343

> <Link to Ligand-Target Pair in BindingDB>
http://www.bindingdb.org/jsp/dbsearch/PrimarySearch_ki.jsp?energyterm=kJ/mole&tag=pol&polymerid=4676&target=DNA+repair+protein+RAD51+homolog+1&column=ki&startPg=0&Increment=50&submit=Search

> <Link to Ligand-Target Pair in BindingDB>
http://www.bindingdb.org/jsp/dbsearch/PrimarySearch_ki.jsp?energyterm=kJ/mole&tag=r21&monomerid=51343&enzyme=DNA+repair+protein+RAD51+homolog+1&column=ki&startPg=0&Increment=50&submit=Search

> <Ligand HET ID in PDB>


> <PDB ID(s) for Ligand-Target Complex>


> <PubChem CID of Ligand>
6470341

> <PubChem SID of Ligand>
252631566

> <ChEBI ID of Ligand>


> <ChEMBL ID of Ligand>


> <DrugBank ID of Ligand>


> <IUPHAR_GRAC ID of Ligand>


> <KEGG ID of Ligand>


> <ZINC ID of Ligand>
ZINC08680661

> <Number of Protein Chains in Target (bigger than 1 implies a multichain complex)>
1

> <BindingDB Target Chain Sequence>
MAMQMQLEANADTSVEEESFGPQPISRLEQCGINANDVKKLEEAGFHTVEAVAYAPKKELINIKGISEAKADKILAEAAKLVPMGFTTATEFHQRRSEIIQITTGSKELDKLLQGGIETGSITEMFGEFRTGKTQICHTLAVTCQLPIDRGGGEGKAMYIDTEGTFRPERLLAVAERYGLSGSDVLDNVAYARAFNTDHQTQLLYQASAMMVESRYALLIVDSATALYRTDYSGRGELSARQMHLARFLRMLLRLADEFGVAVVITNQVVAQVDGAAMFAADPKKPIGGNIIAHASTTRLYLRKGRGETRICKIYDSPCLPEAEAMFAINADGVGDAKD

> <PDB ID(s) of Target Chain>
1N0W,5JZC,5NP7,5NWL,8BQ2,8BR2,8BSC

> <UniProt (SwissProt) Recommended Name of Target Chain>
DNA repair protein RAD51 homolog 1

> <UniProt (SwissProt) Entry Name of Target Chain>
RAD51_HUMAN

> <UniProt (SwissProt) Primary ID of Target Chain>
Q06609

> <UniProt (SwissProt) Secondary ID(s) of Target Chain>
B0FXP0 B2R8T6 Q6FHX9 Q6ZNA8 Q9BV60

> <UniProt (SwissProt) Alternative ID(s) of Target Chain>


> <UniProt (TrEMBL) Submitted Name of Target Chain>


> <UniProt (TrEMBL) Entry Name of Target Chain>


> <UniProt (TrEMBL) Primary ID of Target Chain>


> <UniProt (TrEMBL) Secondary ID(s) of Target Chain>


> <UniProt (TrEMBL) Alternative ID(s) of Target Chain>


$$$$
1506866
  Mrv0541 11251416042D          

 19 21  0  0  0  0            999 V2000
    2.0626    0.0785    0.0000 S   0  0  0  0  0  0  0  0  0  0  0  0
    8.4521   -0.1142    0.0000 S   0  0  0  0  0  0  0  0  0  0  0  0
    5.9200    0.4405    0.0000 O   0  0  0  0  0  0  0  0  0  0  0  0
    4.7089   -1.4061    0.0000 O   0  0  0  0  0  0  0  0  0  0  0  0
    4.2673   -0.0470    0.0000 N   0  0  0  0  0  0  0  0  0  0  0  0
    6.3325   -0.8291    0.0000 N   0  0  0  0  0  0  0  0  0  0  0  0
    6.7450    0.4405    0.0000 N   0  0  0  0  0  0  0  0  0  0  0  0
    3.4827   -0.3020    0.0000 C   0  0  0  0  0  0  0  0  0  0  0  0
    2.8696    0.2501    0.0000 C   0  0  0  0  0  0  0  0  0  0  0  0
    2.9558    1.0705    0.0000 C   0  0  0  0  0  0  0  0  0  0  0  0
    4.8804   -0.5991    0.0000 C   0  0  0  0  0  0  0  0  0  0  0  0
    5.6651   -0.3442    0.0000 C   0  0  0  0  0  0  0  0  0  0  0  0
    7.7846   -0.5991    0.0000 C   0  0  0  0  0  0  0  0  0  0  0  0
    7.0000   -0.3442    0.0000 C   0  0  0  0  0  0  0  0  0  0  0  0
    2.2021    1.4061    0.0000 C   0  0  0  0  0  0  0  0  0  0  0  0
    1.6500    0.7930    0.0000 C   0  0  0  0  0  0  0  0  0  0  0  0
    8.0396   -1.3837    0.0000 C   0  0  0  0  0  0  0  0  0  0  0  0
    8.8646   -1.3837    0.0000 C   0  0  0  0  0  0  0  0  0  0  0  0
    9.1195   -0.5991    0.0000 C   0  0  0  0  0  0  0  0  0  0  0  0
  1  9  1  0  0  0  0
  1 16  1  0  0  0  0
  2 13  1  0  0  0  0
  2 19  1  0  0  0  0
  3  7  1  0  0  0  0
  3 12  1  0  0  0  0
  4 11  2  0  0  0  0
  5  8  1  0  0  0  0
  5 11  1  0  0  0  0
  6 12  2  0  0  0  0
  6 14  1  0  0  0  0
  7 14  2  0  0  0  0
  8  9  1  0  0  0  0
  9 10  2  0  0  0  0
 10 15  1  0  0  0  0
 11 12  1  0  0  0  0
 13 14  1  0  0  0  0
 13 17  2  0  0  0  0
 15 16  2  0  0  0  0
 17 18  1  0  0  0  0
 18 19  2  0  0  0  0
M  END
> <From>
www.bindingDB.org

> <BindingDB Reactant_set_id>
95229

> <Ligand InChI>
InChI=1S/C12H9N3O2S2/c16-11(13-7-8-3-1-5-18-8)12-14-10(15-17-12)9-4-2-6-19-9/h1-6H,7H2,(H,13,16)

> <Ligand InChI Key>
UFGGMOHTMNWUJP-UHFFFAOYSA-N

> <BindingDB MonomerID>
51344

> <BindingDB Ligand Name>
3-(2-thienyl)-N-(2-thienylmethyl)-1,2,4-oxadiazole-5-carboxamide::3-thiophen-2-yl-N-(thiophen-2-ylmethyl)-1,2,4-oxadiazole-5-carboxamide::MLS000679620::N-(2-thenyl)-3-(2-thienyl)-1,2,4-oxadiazole-5-carboxamide::SMR000297878::cid_1506866

> <Target Name>
DNA repair protein RAD51 homolog 1

> <Target Source Organism According to Curator or DataSource>
Homo sapiens

> <Ki (nM)>


> <IC50 (nM)>
 53000

> <Kd (nM)>


> <EC50 (nM)>


> <kon (M-1-s-1)>


> <koff (s-1)>


> <pH>


> <Temp C>


> <Curation/DataSource>
PubChem

> <Article DOI>


> <BindingDB Entry DOI>
10.7270/Q2QN6558

> <PMID>


> <PubChem AID>
aid1437

> <Patent Number>


> <Authors>
PubChem, PC

> <Date of publication>
11/25/2008

> <Date in BindingDB>
5/31/2011

> <Institution>
PCMD

> <Link to Ligand in BindingDB>
http://www.bindingdb.org/bind/chemsearch/marvin/MolStructure.jsp?monomerid=51344

> <Link to Ligand-Target Pair in BindingDB>
http://www.bindingdb.org/jsp/dbsearch/PrimarySearch_ki.jsp?energyterm=kJ/mole&tag=pol&polymerid=4676&target=DNA+repair+protein+RAD51+homolog+1&column=ki&startPg=0&Increment=50&submit=Search

> <Link to Ligand-Target Pair in BindingDB>
http://www.bindingdb.org/jsp/dbsearch/PrimarySearch_ki.jsp?energyterm=kJ/mole&tag=r21&monomerid=51344&enzyme=DNA+repair+protein+RAD51+homolog+1&column=ki&startPg=0&Increment=50&submit=Search

> <Ligand HET ID in PDB>


> <PDB ID(s) for Ligand-Target Complex>


> <PubChem CID of Ligand>
1506866

> <PubChem SID of Ligand>
252631567

> <ChEBI ID of Ligand>


> <ChEMBL ID of Ligand>


> <DrugBank ID of Ligand>


> <IUPHAR_GRAC ID of Ligand>


> <KEGG ID of Ligand>


> <ZINC ID of Ligand>
ZINC03958912

> <Number of Protein Chains in Target (bigger than 1 implies a multichain complex)>
1

> <BindingDB Target Chain Sequence>
MAMQMQLEANADTSVEEESFGPQPISRLEQCGINANDVKKLEEAGFHTVEAVAYAPKKELINIKGISEAKADKILAEAAKLVPMGFTTATEFHQRRSEIIQITTGSKELDKLLQGGIETGSITEMFGEFRTGKTQICHTLAVTCQLPIDRGGGEGKAMYIDTEGTFRPERLLAVAERYGLSGSDVLDNVAYARAFNTDHQTQLLYQASAMMVESRYALLIVDSATALYRTDYSGRGELSARQMHLARFLRMLLRLADEFGVAVVITNQVVAQVDGAAMFAADPKKPIGGNIIAHASTTRLYLRKGRGETRICKIYDSPCLPEAEAMFAINADGVGDAKD

> <PDB ID(s) of Target Chain>
1N0W,5JZC,5NP7,5NWL,8BQ2,8BR2,8BSC

> <UniProt (SwissProt) Recommended Name of Target Chain>
DNA repair protein RAD51 homolog 1

> <UniProt (SwissProt) Entry Name of Target Chain>
RAD51_HUMAN

> <UniProt (SwissProt) Primary ID of Target Chain>
Q06609

> <UniProt (SwissProt) Secondary ID(s) of Target Chain>
B0FXP0 B2R8T6 Q6FHX9 Q6ZNA8 Q9BV60

> <UniProt (SwissProt) Alternative ID(s) of Target Chain>


> <UniProt (TrEMBL) Submitted Name of Target Chain>


> <UniProt (TrEMBL) Entry Name of Target Chain>


> <UniProt (TrEMBL) Primary ID of Target Chain>


> <UniProt (TrEMBL) Secondary ID(s) of Target Chain>


> <UniProt (TrEMBL) Alternative ID(s) of Target Chain>


$$$$
2951414
  Mrv0541 11251416042D          

 14 14  0  0  0  0            999 V2000
    3.6325    0.0000    0.0000 Br  0  0  0  0  0  0  0  0  0  0  0  0
    5.0614    5.7750    0.0000 O   0  0  0  0  0  0  0  0  0  0  0  0
    4.3469    3.7125    0.0000 N   0  0  0  0  0  0  0  0  0  0  0  0
    4.3469    4.5375    0.0000 C   0  0  0  0  0  0  0  0  0  0  0  0
    4.3469    5.3625    0.0000 C   0  0  0  0  0  0  0  0  0  0  0  0
    5.1719    4.5375    0.0000 C   0  0  0  0  0  0  0  0  0  0  0  0
    3.5219    4.5375    0.0000 C   0  0  0  0  0  0  0  0  0  0  0  0
    3.6325    3.3000    0.0000 C   0  0  0  0  0  0  0  0  0  0  0  0
    3.6325    2.4750    0.0000 C   0  0  0  0  0  0  0  0  0  0  0  0
    2.9179    2.0625    0.0000 C   0  0  0  0  0  0  0  0  0  0  0  0
    4.3469    2.0625    0.0000 C   0  0  0  0  0  0  0  0  0  0  0  0
    2.9179    1.2375    0.0000 C   0  0  0  0  0  0  0  0  0  0  0  0
    4.3469    1.2375    0.0000 C   0  0  0  0  0  0  0  0  0  0  0  0
    3.6325    0.8250    0.0000 C   0  0  0  0  0  0  0  0  0  0  0  0
  1 14  1  0  0  0  0
  2  5  1  0  0  0  0
  3  4  1  0  0  0  0
  3  8  1  0  0  0  0
  4  5  1  0  0  0  0
  4  6  1  0  0  0  0
  4  7  1  0  0  0  0
  8  9  1  0  0  0  0
  9 10  2  0  0  0  0
  9 11  1  0  0  0  0
 10 12  1  0  0  0  0
 11 13  2  0  0  0  0
 12 14  2  0  0  0  0
 13 14  1  0  0  0  0
M  END
> <From>
www.bindingDB.org

> <BindingDB Reactant_set_id>
95230

> <Ligand InChI>
InChI=1S/C11H16BrNO/c1-11(2,8-14)13-7-9-3-5-10(12)6-4-9/h3-6,13-14H,7-8H2,1-2H3

> <Ligand InChI Key>
OOMZYPFIONMKJU-UHFFFAOYSA-N

> <BindingDB MonomerID>
51345

> <BindingDB Ligand Name>
2-[(4-bromobenzyl)amino]-2-methyl-1-propanol hydrochloride::2-[(4-bromobenzyl)amino]-2-methyl-propan-1-ol;hydrochloride::2-[(4-bromophenyl)methylamino]-2-methyl-1-propanol;hydrochloride::2-[(4-bromophenyl)methylamino]-2-methyl-propan-1-ol;hydrochloride::2-[(4-bromophenyl)methylamino]-2-methylpropan-1-ol;hydrochloride::MLS000675434::SMR000293686::cid_2951414

> <Target Name>
DNA repair protein RAD51 homolog 1

> <Target Source Organism According to Curator or DataSource>
Homo sapiens

> <Ki (nM)>


> <IC50 (nM)>
 53000

> <Kd (nM)>


> <EC50 (nM)>


> <kon (M-1-s-1)>


> <koff (s-1)>


> <pH>


> <Temp C>


> <Curation/DataSource>
PubChem

> <Article DOI>


> <BindingDB Entry DOI>
10.7270/Q2QN6558

> <PMID>


> <PubChem AID>
aid1437

> <Patent Number>


> <Authors>
PubChem, PC

> <Date of publication>
11/25/2008

> <Date in BindingDB>
5/31/2011

> <Institution>
PCMD

> <Link to Ligand in BindingDB>
http://www.bindingdb.org/bind/chemsearch/marvin/MolStructure.jsp?monomerid=51345

> <Link to Ligand-Target Pair in BindingDB>
http://www.bindingdb.org/jsp/dbsearch/PrimarySearch_ki.jsp?energyterm=kJ/mole&tag=pol&polymerid=4676&target=DNA+repair+protein+RAD51+homolog+1&column=ki&startPg=0&Increment=50&submit=Search

> <Link to Ligand-Target Pair in BindingDB>
http://www.bindingdb.org/jsp/dbsearch/PrimarySearch_ki.jsp?energyterm=kJ/mole&tag=r21&monomerid=51345&enzyme=DNA+repair+protein+RAD51+homolog+1&column=ki&startPg=0&Increment=50&submit=Search

> <Ligand HET ID in PDB>


> <PDB ID(s) for Ligand-Target Complex>


> <PubChem CID of Ligand>
834068

> <PubChem SID of Ligand>
252631568

> <ChEBI ID of Ligand>


> <ChEMBL ID of Ligand>


> <DrugBank ID of Ligand>


> <IUPHAR_GRAC ID of Ligand>


> <KEGG ID of Ligand>


> <ZINC ID of Ligand>
ZINC08681152

> <Number of Protein Chains in Target (bigger than 1 implies a multichain complex)>
1

> <BindingDB Target Chain Sequence>
MAMQMQLEANADTSVEEESFGPQPISRLEQCGINANDVKKLEEAGFHTVEAVAYAPKKELINIKGISEAKADKILAEAAKLVPMGFTTATEFHQRRSEIIQITTGSKELDKLLQGGIETGSITEMFGEFRTGKTQICHTLAVTCQLPIDRGGGEGKAMYIDTEGTFRPERLLAVAERYGLSGSDVLDNVAYARAFNTDHQTQLLYQASAMMVESRYALLIVDSATALYRTDYSGRGELSARQMHLARFLRMLLRLADEFGVAVVITNQVVAQVDGAAMFAADPKKPIGGNIIAHASTTRLYLRKGRGETRICKIYDSPCLPEAEAMFAINADGVGDAKD

> <PDB ID(s) of Target Chain>
1N0W,5JZC,5NP7,5NWL,8BQ2,8BR2,8BSC

> <UniProt (SwissProt) Recommended Name of Target Chain>
DNA repair protein RAD51 homolog 1

> <UniProt (SwissProt) Entry Name of Target Chain>
RAD51_HUMAN

> <UniProt (SwissProt) Primary ID of Target Chain>
Q06609

> <UniProt (SwissProt) Secondary ID(s) of Target Chain>
B0FXP0 B2R8T6 Q6FHX9 Q6ZNA8 Q9BV60

> <UniProt (SwissProt) Alternative ID(s) of Target Chain>


> <UniProt (TrEMBL) Submitted Name of Target Chain>


> <UniProt (TrEMBL) Entry Name of Target Chain>


> <UniProt (TrEMBL) Primary ID of Target Chain>


> <UniProt (TrEMBL) Secondary ID(s) of Target Chain>


> <UniProt (TrEMBL) Alternative ID(s) of Target Chain>


$$$$
2207276
  Mrv0541 11251416042D          

 20 20  0  0  0  0            999 V2000
    5.2224   -1.0313    0.0000 S   0  0  0  0  0  0  0  0  0  0  0  0
    1.6500   -1.4438    0.0000 F   0  0  0  0  0  0  0  0  0  0  0  0
    1.9520   -2.5707    0.0000 F   0  0  0  0  0  0  0  0  0  0  0  0
    2.7770   -1.1418    0.0000 F   0  0  0  0  0  0  0  0  0  0  0  0
    4.5079    1.8563    0.0000 O   0  0  0  0  0  0  0  0  0  0  0  0
    3.7935   -1.0313    0.0000 N   0  0  0  0  0  0  0  0  0  0  0  0
    4.5079    0.2063    0.0000 N   0  0  0  0  0  0  0  0  0  0  0  0
    5.2224    0.6188    0.0000 N   0  0  0  0  0  0  0  0  0  0  0  0
    5.9369    3.5063    0.0000 N   0  0  0  0  0  0  0  0  0  0  0  0
    3.7935   -1.8563    0.0000 C   0  0  0  0  0  0  0  0  0  0  0  0
    3.0789   -2.2688    0.0000 C   0  0  0  0  0  0  0  0  0  0  0  0
    4.5079   -2.2688    0.0000 C   0  0  0  0  0  0  0  0  0  0  0  0
    3.0789   -3.0938    0.0000 C   0  0  0  0  0  0  0  0  0  0  0  0
    2.3645   -1.8563    0.0000 C   0  0  0  0  0  0  0  0  0  0  0  0
    4.5079   -3.0938    0.0000 C   0  0  0  0  0  0  0  0  0  0  0  0
    3.7935   -3.5063    0.0000 C   0  0  0  0  0  0  0  0  0  0  0  0
    4.5079   -0.6188    0.0000 C   0  0  0  0  0  0  0  0  0  0  0  0
    5.2224    1.4438    0.0000 C   0  0  0  0  0  0  0  0  0  0  0  0
    5.9369    1.8563    0.0000 C   0  0  0  0  0  0  0  0  0  0  0  0
    5.9369    2.6813    0.0000 C   0  0  0  0  0  0  0  0  0  0  0  0
  1 17  2  0  0  0  0
  2 14  1  0  0  0  0
  3 14  1  0  0  0  0
  4 14  1  0  0  0  0
  5 18  2  0  0  0  0
  6 10  1  0  0  0  0
  6 17  1  0  0  0  0
  7  8  1  0  0  0  0
  7 17  1  0  0  0  0
  8 18  1  0  0  0  0
  9 20  3  0  0  0  0
 10 11  2  0  0  0  0
 10 12  1  0  0  0  0
 11 13  1  0  0  0  0
 11 14  1  0  0  0  0
 12 15  2  0  0  0  0
 13 16  2  0  0  0  0
 15 16  1  0  0  0  0
 18 19  1  0  0  0  0
 19 20  1  0  0  0  0
M  END
> <From>
www.bindingDB.org

> <BindingDB Reactant_set_id>
95231

> <Ligand InChI>
InChI=1S/C11H9F3N4OS/c12-11(13,14)7-3-1-2-4-8(7)16-10(20)18-17-9(19)5-6-15/h1-4H,5H2,(H,17,19)(H2,16,18,20)

> <Ligand InChI Key>
KNOHVOJQCUDUBG-UHFFFAOYSA-N

> <BindingDB MonomerID>
51346

> <BindingDB Ligand Name>
1-(2-cyanoethanoylamino)-3-[2-(trifluoromethyl)phenyl]thiourea::1-[(2-cyano-1-oxoethyl)amino]-3-[2-(trifluoromethyl)phenyl]thiourea::1-[(2-cyanoacetyl)amino]-3-[2-(trifluoromethyl)phenyl]thiourea::2-(cyanoacetyl)-N-[2-(trifluoromethyl)phenyl]hydrazinecarbothioamide::MLS000666344::SMR000294166::cid_2207276

> <Target Name>
DNA repair protein RAD51 homolog 1

> <Target Source Organism According to Curator or DataSource>
Homo sapiens

> <Ki (nM)>


> <IC50 (nM)>
 53000

> <Kd (nM)>


> <EC50 (nM)>


> <kon (M-1-s-1)>


> <koff (s-1)>


> <pH>


> <Temp C>


> <Curation/DataSource>
PubChem

> <Article DOI>


> <BindingDB Entry DOI>
10.7270/Q2QN6558

> <PMID>


> <PubChem AID>
aid1437

> <Patent Number>


> <Authors>
PubChem, PC

> <Date of publication>
11/25/2008

> <Date in BindingDB>
5/31/2011

> <Institution>
PCMD

> <Link to Ligand in BindingDB>
http://www.bindingdb.org/bind/chemsearch/marvin/MolStructure.jsp?monomerid=51346

> <Link to Ligand-Target Pair in BindingDB>
http://www.bindingdb.org/jsp/dbsearch/PrimarySearch_ki.jsp?energyterm=kJ/mole&tag=pol&polymerid=4676&target=DNA+repair+protein+RAD51+homolog+1&column=ki&startPg=0&Increment=50&submit=Search

> <Link to Ligand-Target Pair in BindingDB>
http://www.bindingdb.org/jsp/dbsearch/PrimarySearch_ki.jsp?energyterm=kJ/mole&tag=r21&monomerid=51346&enzyme=DNA+repair+protein+RAD51+homolog+1&column=ki&startPg=0&Increment=50&submit=Search

> <Ligand HET ID in PDB>


> <PDB ID(s) for Ligand-Target Complex>


> <PubChem CID of Ligand>
2207276

> <PubChem SID of Ligand>
252631569

> <ChEBI ID of Ligand>


> <ChEMBL ID of Ligand>


> <DrugBank ID of Ligand>


> <IUPHAR_GRAC ID of Ligand>


> <KEGG ID of Ligand>


> <ZINC ID of Ligand>
ZINC08680120

> <Number of Protein Chains in Target (bigger than 1 implies a multichain complex)>
1

> <BindingDB Target Chain Sequence>
MAMQMQLEANADTSVEEESFGPQPISRLEQCGINANDVKKLEEAGFHTVEAVAYAPKKELINIKGISEAKADKILAEAAKLVPMGFTTATEFHQRRSEIIQITTGSKELDKLLQGGIETGSITEMFGEFRTGKTQICHTLAVTCQLPIDRGGGEGKAMYIDTEGTFRPERLLAVAERYGLSGSDVLDNVAYARAFNTDHQTQLLYQASAMMVESRYALLIVDSATALYRTDYSGRGELSARQMHLARFLRMLLRLADEFGVAVVITNQVVAQVDGAAMFAADPKKPIGGNIIAHASTTRLYLRKGRGETRICKIYDSPCLPEAEAMFAINADGVGDAKD

> <PDB ID(s) of Target Chain>
1N0W,5JZC,5NP7,5NWL,8BQ2,8BR2,8BSC

> <UniProt (SwissProt) Recommended Name of Target Chain>
DNA repair protein RAD51 homolog 1

> <UniProt (SwissProt) Entry Name of Target Chain>
RAD51_HUMAN

> <UniProt (SwissProt) Primary ID of Target Chain>
Q06609

> <UniProt (SwissProt) Secondary ID(s) of Target Chain>
B0FXP0 B2R8T6 Q6FHX9 Q6ZNA8 Q9BV60

> <UniProt (SwissProt) Alternative ID(s) of Target Chain>


> <UniProt (TrEMBL) Submitted Name of Target Chain>


> <UniProt (TrEMBL) Entry Name of Target Chain>


> <UniProt (TrEMBL) Primary ID of Target Chain>


> <UniProt (TrEMBL) Secondary ID(s) of Target Chain>


> <UniProt (TrEMBL) Alternative ID(s) of Target Chain>


$$$$
718601
  Mrv0541 11251416042D          

 22 24  0  0  0  0            999 V2000
    2.4972   -2.6119    0.0000 F   0  0  0  0  0  0  0  0  0  0  0  0
    2.9849    3.7770    0.0000 O   0  0  0  0  0  0  0  0  0  0  0  0
    4.1848    0.9900    0.0000 O   0  0  0  0  0  0  0  0  0  0  0  0
    2.8794    1.5712    0.0000 N   0  0  0  0  0  0  0  0  0  0  0  0
    3.5137   -0.5174    0.0000 N   0  0  0  0  0  0  0  0  0  0  0  0
    3.2587   -1.3020    0.0000 N   0  0  0  0  0  0  0  0  0  0  0  0
    4.3387   -0.5174    0.0000 N   0  0  0  0  0  0  0  0  0  0  0  0
    4.5936   -1.3020    0.0000 N   0  0  0  0  0  0  0  0  0  0  0  0
    3.0287    0.1501    0.0000 C   0  0  0  0  0  0  0  0  0  0  0  0
    3.2149    2.3249    0.0000 C   0  0  0  0  0  0  0  0  0  0  0  0
    3.3643    0.9038    0.0000 C   0  0  0  0  0  0  0  0  0  0  0  0
    2.7300    2.9924    0.0000 C   0  0  0  0  0  0  0  0  0  0  0  0
    3.9262   -2.6119    0.0000 C   0  0  0  0  0  0  0  0  0  0  0  0
    3.9262   -1.7869    0.0000 C   0  0  0  0  0  0  0  0  0  0  0  0
    1.9050    2.9924    0.0000 C   0  0  0  0  0  0  0  0  0  0  0  0
    3.2117   -3.0244    0.0000 C   0  0  0  0  0  0  0  0  0  0  0  0
    4.6406   -3.0244    0.0000 C   0  0  0  0  0  0  0  0  0  0  0  0
    1.6500    3.7770    0.0000 C   0  0  0  0  0  0  0  0  0  0  0  0
    3.2117   -3.8495    0.0000 C   0  0  0  0  0  0  0  0  0  0  0  0
    4.6406   -3.8495    0.0000 C   0  0  0  0  0  0  0  0  0  0  0  0
    2.3175    4.2620    0.0000 C   0  0  0  0  0  0  0  0  0  0  0  0
    3.9262   -4.2620    0.0000 C   0  0  0  0  0  0  0  0  0  0  0  0
  1 16  1  0  0  0  0
  2 12  1  0  0  0  0
  2 21  1  0  0  0  0
  3 11  2  0  0  0  0
  4 10  1  0  0  0  0
  4 11  1  0  0  0  0
  5  6  1  0  0  0  0
  5  7  1  0  0  0  0
  5  9  1  0  0  0  0
  6 14  2  0  0  0  0
  7  8  2  0  0  0  0
  8 14  1  0  0  0  0
  9 11  1  0  0  0  0
 10 12  1  0  0  0  0
 12 15  2  0  0  0  0
 13 14  1  0  0  0  0
 13 16  2  0  0  0  0
 13 17  1  0  0  0  0
 15 18  1  0  0  0  0
 16 19  1  0  0  0  0
 17 20  2  0  0  0  0
 18 21  2  0  0  0  0
 19 22  2  0  0  0  0
 20 22  1  0  0  0  0
M  END
> <From>
www.bindingDB.org

> <BindingDB Reactant_set_id>
95232

> <Ligand InChI>
InChI=1S/C14H12FN5O2/c15-12-6-2-1-5-11(12)14-17-19-20(18-14)9-13(21)16-8-10-4-3-7-22-10/h1-7H,8-9H2,(H,16,21)

> <Ligand InChI Key>
CQKMFHWZQUPLLH-UHFFFAOYSA-N

> <BindingDB MonomerID>
51347

> <BindingDB Ligand Name>
2-[5-(2-fluorophenyl)-1,2,3,4-tetrazol-2-yl]-N-(furan-2-ylmethyl)ethanamide::2-[5-(2-fluorophenyl)-2-tetrazolyl]-N-(2-furanylmethyl)acetamide::2-[5-(2-fluorophenyl)-2H-tetrazol-2-yl]-N-(2-furylmethyl)acetamide::2-[5-(2-fluorophenyl)tetrazol-2-yl]-N-(2-furfuryl)acetamide::2-[5-(2-fluorophenyl)tetrazol-2-yl]-N-(furan-2-ylmethyl)acetamide::MLS000666383::SMR000294198::cid_718601

> <Target Name>
DNA repair protein RAD51 homolog 1

> <Target Source Organism According to Curator or DataSource>
Homo sapiens

> <Ki (nM)>


> <IC50 (nM)>
 53000

> <Kd (nM)>


> <EC50 (nM)>


> <kon (M-1-s-1)>


> <koff (s-1)>


> <pH>


> <Temp C>


> <Curation/DataSource>
PubChem

> <Article DOI>


> <BindingDB Entry DOI>
10.7270/Q2QN6558

> <PMID>


> <PubChem AID>
aid1437

> <Patent Number>


> <Authors>
PubChem, PC

> <Date of publication>
11/25/2008

> <Date in BindingDB>
5/31/2011

> <Institution>
PCMD

> <Link to Ligand in BindingDB>
http://www.bindingdb.org/bind/chemsearch/marvin/MolStructure.jsp?monomerid=51347

> <Link to Ligand-Target Pair in BindingDB>
http://www.bindingdb.org/jsp/dbsearch/PrimarySearch_ki.jsp?energyterm=kJ/mole&tag=pol&polymerid=4676&target=DNA+repair+protein+RAD51+homolog+1&column=ki&startPg=0&Increment=50&submit=Search

> <Link to Ligand-Target Pair in BindingDB>
http://www.bindingdb.org/jsp/dbsearch/PrimarySearch_ki.jsp?energyterm=kJ/mole&tag=r21&monomerid=51347&enzyme=DNA+repair+protein+RAD51+homolog+1&column=ki&startPg=0&Increment=50&submit=Search

> <Ligand HET ID in PDB>


> <PDB ID(s) for Ligand-Target Complex>


> <PubChem CID of Ligand>
718601

> <PubChem SID of Ligand>
252631570

> <ChEBI ID of Ligand>


> <ChEMBL ID of Ligand>


> <DrugBank ID of Ligand>


> <IUPHAR_GRAC ID of Ligand>


> <KEGG ID of Ligand>


> <ZINC ID of Ligand>
ZINC01389151

> <Number of Protein Chains in Target (bigger than 1 implies a multichain complex)>
1

> <BindingDB Target Chain Sequence>
MAMQMQLEANADTSVEEESFGPQPISRLEQCGINANDVKKLEEAGFHTVEAVAYAPKKELINIKGISEAKADKILAEAAKLVPMGFTTATEFHQRRSEIIQITTGSKELDKLLQGGIETGSITEMFGEFRTGKTQICHTLAVTCQLPIDRGGGEGKAMYIDTEGTFRPERLLAVAERYGLSGSDVLDNVAYARAFNTDHQTQLLYQASAMMVESRYALLIVDSATALYRTDYSGRGELSARQMHLARFLRMLLRLADEFGVAVVITNQVVAQVDGAAMFAADPKKPIGGNIIAHASTTRLYLRKGRGETRICKIYDSPCLPEAEAMFAINADGVGDAKD

> <PDB ID(s) of Target Chain>
1N0W,5JZC,5NP7,5NWL,8BQ2,8BR2,8BSC

> <UniProt (SwissProt) Recommended Name of Target Chain>
DNA repair protein RAD51 homolog 1

> <UniProt (SwissProt) Entry Name of Target Chain>
RAD51_HUMAN

> <UniProt (SwissProt) Primary ID of Target Chain>
Q06609

> <UniProt (SwissProt) Secondary ID(s) of Target Chain>
B0FXP0 B2R8T6 Q6FHX9 Q6ZNA8 Q9BV60

> <UniProt (SwissProt) Alternative ID(s) of Target Chain>


> <UniProt (TrEMBL) Submitted Name of Target Chain>


> <UniProt (TrEMBL) Entry Name of Target Chain>


> <UniProt (TrEMBL) Primary ID of Target Chain>


> <UniProt (TrEMBL) Secondary ID(s) of Target Chain>


> <UniProt (TrEMBL) Alternative ID(s) of Target Chain>


$$$$
3228207
  Mrv0541 11251416042D          

 28 31  0  0  0  0            999 V2000
    5.3430   -4.3958    0.0000 Cl  0  0  0  0  0  0  0  0  0  0  0  0
    2.3645    3.1583    0.0000 O   0  0  0  0  0  0  0  0  0  0  0  0
    3.7935    3.1583    0.0000 O   0  0  0  0  0  0  0  0  0  0  0  0
    3.0789    0.2707    0.0000 N   0  0  0  0  0  0  0  0  0  0  0  0
    2.3645   -0.9667    0.0000 N   0  0  0  0  0  0  0  0  0  0  0  0
    4.5741   -2.0432    0.0000 N   0  0  0  0  0  0  0  0  0  0  0  0
    4.5741   -0.7154    0.0000 N   0  0  0  0  0  0  0  0  0  0  0  0
    3.0789   -2.2043    0.0000 N   0  0  0  0  0  0  0  0  0  0  0  0
    5.0556   -1.3792    0.0000 N   0  0  0  0  0  0  0  0  0  0  0  0
    3.0789    1.9208    0.0000 C   0  0  0  0  0  0  0  0  0  0  0  0
    2.3645    1.5083    0.0000 C   0  0  0  0  0  0  0  0  0  0  0  0
    3.7935    1.5083    0.0000 C   0  0  0  0  0  0  0  0  0  0  0  0
    3.7935    0.6832    0.0000 C   0  0  0  0  0  0  0  0  0  0  0  0
    2.3645    0.6832    0.0000 C   0  0  0  0  0  0  0  0  0  0  0  0
    3.0789   -0.5543    0.0000 C   0  0  0  0  0  0  0  0  0  0  0  0
    3.0789    2.7458    0.0000 C   0  0  0  0  0  0  0  0  0  0  0  0
    3.7935   -0.9667    0.0000 C   0  0  0  0  0  0  0  0  0  0  0  0
    3.7935   -1.7918    0.0000 C   0  0  0  0  0  0  0  0  0  0  0  0
    4.8304   -2.8274    0.0000 C   0  0  0  0  0  0  0  0  0  0  0  0
    2.3645   -1.7918    0.0000 C   0  0  0  0  0  0  0  0  0  0  0  0
    2.3645    3.9833    0.0000 C   0  0  0  0  0  0  0  0  0  0  0  0
    5.6377   -2.9975    0.0000 C   0  0  0  0  0  0  0  0  0  0  0  0
    1.6500    4.3958    0.0000 C   0  0  0  0  0  0  0  0  0  0  0  0
    5.8939   -3.7817    0.0000 C   0  0  0  0  0  0  0  0  0  0  0  0
    6.1886   -2.3834    0.0000 C   0  0  0  0  0  0  0  0  0  0  0  0
    6.7012   -3.9519    0.0000 C   0  0  0  0  0  0  0  0  0  0  0  0
    6.9959   -2.5536    0.0000 C   0  0  0  0  0  0  0  0  0  0  0  0
    7.2522   -3.3378    0.0000 C   0  0  0  0  0  0  0  0  0  0  0  0
  1 24  1  0  0  0  0
  2 16  1  0  0  0  0
  2 21  1  0  0  0  0
  3 16  2  0  0  0  0
  4 13  1  0  0  0  0
  4 14  1  0  0  0  0
  4 15  1  0  0  0  0
  5 15  1  0  0  0  0
  5 20  2  0  0  0  0
  6  9  1  0  0  0  0
  6 18  1  0  0  0  0
  6 19  1  0  0  0  0
  7  9  2  0  0  0  0
  7 17  1  0  0  0  0
  8 18  2  0  0  0  0
  8 20  1  0  0  0  0
 10 11  1  0  0  0  0
 10 12  1  0  0  0  0
 10 16  1  0  0  0  0
 11 14  1  0  0  0  0
 12 13  1  0  0  0  0
 15 17  2  0  0  0  0
 17 18  1  0  0  0  0
 19 22  1  0  0  0  0
 21 23  1  0  0  0  0
 22 24  2  0  0  0  0
 22 25  1  0  0  0  0
 24 26  1  0  0  0  0
 25 27  2  0  0  0  0
 26 28  2  0  0  0  0
 27 28  1  0  0  0  0
M  END
> <From>
www.bindingDB.org

> <BindingDB Reactant_set_id>
95233

> <Ligand InChI>
InChI=1S/C19H21ClN6O2/c1-2-28-19(27)13-7-9-25(10-8-13)17-16-18(22-12-21-17)26(24-23-16)11-14-5-3-4-6-15(14)20/h3-6,12-13H,2,7-11H2,1H3

> <Ligand InChI Key>
XJVYDOSGSIHOKK-UHFFFAOYSA-N

> <BindingDB MonomerID>
51348

> <BindingDB Ligand Name>
1-[3-(2-chlorobenzyl)triazolo[4,5-d]pyrimidin-7-yl]isonipecotic acid ethyl ester::1-[3-[(2-chlorophenyl)methyl]-7-triazolo[4,5-d]pyrimidinyl]-4-piperidinecarboxylic acid ethyl ester::MLS000709568::SMR000288035::cid_3228207::ethyl 1-[3-[(2-chlorophenyl)methyl]-[1,2,3]triazolo[4,5-d]pyrimidin-7-yl]piperidine-4-carboxylate::ethyl 1-[3-[(2-chlorophenyl)methyl]triazolo[4,5-d]pyrimidin-7-yl]piperidine-4-carboxylate

> <Target Name>
DNA repair protein RAD51 homolog 1

> <Target Source Organism According to Curator or DataSource>
Homo sapiens

> <Ki (nM)>


> <IC50 (nM)>
 53000

> <Kd (nM)>


> <EC50 (nM)>


> <kon (M-1-s-1)>


> <koff (s-1)>


> <pH>


> <Temp C>


> <Curation/DataSource>
PubChem

> <Article DOI>


> <BindingDB Entry DOI>
10.7270/Q2QN6558

> <PMID>


> <PubChem AID>
aid1437

> <Patent Number>


> <Authors>
PubChem, PC

> <Date of publication>
11/25/2008

> <Date in BindingDB>
5/31/2011

> <Institution>
PCMD

> <Link to Ligand in BindingDB>
http://www.bindingdb.org/bind/chemsearch/marvin/MolStructure.jsp?monomerid=51348

> <Link to Ligand-Target Pair in BindingDB>
http://www.bindingdb.org/jsp/dbsearch/PrimarySearch_ki.jsp?energyterm=kJ/mole&tag=pol&polymerid=4676&target=DNA+repair+protein+RAD51+homolog+1&column=ki&startPg=0&Increment=50&submit=Search

> <Link to Ligand-Target Pair in BindingDB>
http://www.bindingdb.org/jsp/dbsearch/PrimarySearch_ki.jsp?energyterm=kJ/mole&tag=r21&monomerid=51348&enzyme=DNA+repair+protein+RAD51+homolog+1&column=ki&startPg=0&Increment=50&submit=Search

> <Ligand HET ID in PDB>


> <PDB ID(s) for Ligand-Target Complex>


> <PubChem CID of Ligand>
3228207

> <PubChem SID of Ligand>
252631571

> <ChEBI ID of Ligand>


> <ChEMBL ID of Ligand>


> <DrugBank ID of Ligand>


> <IUPHAR_GRAC ID of Ligand>


> <KEGG ID of Ligand>


> <ZINC ID of Ligand>
ZINC08828920

> <Number of Protein Chains in Target (bigger than 1 implies a multichain complex)>
1

> <BindingDB Target Chain Sequence>
MAMQMQLEANADTSVEEESFGPQPISRLEQCGINANDVKKLEEAGFHTVEAVAYAPKKELINIKGISEAKADKILAEAAKLVPMGFTTATEFHQRRSEIIQITTGSKELDKLLQGGIETGSITEMFGEFRTGKTQICHTLAVTCQLPIDRGGGEGKAMYIDTEGTFRPERLLAVAERYGLSGSDVLDNVAYARAFNTDHQTQLLYQASAMMVESRYALLIVDSATALYRTDYSGRGELSARQMHLARFLRMLLRLADEFGVAVVITNQVVAQVDGAAMFAADPKKPIGGNIIAHASTTRLYLRKGRGETRICKIYDSPCLPEAEAMFAINADGVGDAKD

> <PDB ID(s) of Target Chain>
1N0W,5JZC,5NP7,5NWL,8BQ2,8BR2,8BSC

> <UniProt (SwissProt) Recommended Name of Target Chain>
DNA repair protein RAD51 homolog 1

> <UniProt (SwissProt) Entry Name of Target Chain>
RAD51_HUMAN

> <UniProt (SwissProt) Primary ID of Target Chain>
Q06609

> <UniProt (SwissProt) Secondary ID(s) of Target Chain>
B0FXP0 B2R8T6 Q6FHX9 Q6ZNA8 Q9BV60

> <UniProt (SwissProt) Alternative ID(s) of Target Chain>


> <UniProt (TrEMBL) Submitted Name of Target Chain>


> <UniProt (TrEMBL) Entry Name of Target Chain>


> <UniProt (TrEMBL) Primary ID of Target Chain>


> <UniProt (TrEMBL) Secondary ID(s) of Target Chain>


> <UniProt (TrEMBL) Alternative ID(s) of Target Chain>


$$$$
4095928
  Mrv0541 11251416042D          

 29 32  0  0  0  0            999 V2000
    1.6763    1.1881    0.0000 F   0  0  0  0  0  0  0  0  0  0  0  0
    2.8062    1.4788    0.0000 F   0  0  0  0  0  0  0  0  0  0  0  0
    1.9671    0.0582    0.0000 F   0  0  0  0  0  0  0  0  0  0  0  0
    2.4784   -0.1970    0.0000 O   0  0  0  0  0  0  0  0  0  0  0  0
    6.7961    3.0632    0.0000 O   0  0  0  0  0  0  0  0  0  0  0  0
    3.6429   -0.2697    0.0000 N   0  0  0  0  0  0  0  0  0  0  0  0
    4.3999    0.0583    0.0000 N   0  0  0  0  0  0  0  0  0  0  0  0
    4.1109   -1.5861    0.0000 N   0  0  0  0  0  0  0  0  0  0  0  0
    2.6599   -1.2625    0.0000 N   0  0  0  0  0  0  0  0  0  0  0  0
    4.8903   -1.3308    0.0000 N   0  0  0  0  0  0  0  0  0  0  0  0
    4.8969   -2.6586    0.0000 N   0  0  0  0  0  0  0  0  0  0  0  0
    2.3056   -2.0076    0.0000 N   0  0  0  0  0  0  0  0  0  0  0  0
    2.1561   -3.3966    0.0000 N   0  0  0  0  0  0  0  0  0  0  0  0
    3.0970    0.3489    0.0000 C   0  0  0  0  0  0  0  0  0  0  0  0
    3.5166    1.0592    0.0000 C   0  0  0  0  0  0  0  0  0  0  0  0
    4.3218    0.8796    0.0000 C   0  0  0  0  0  0  0  0  0  0  0  0
    2.3866    0.7685    0.0000 C   0  0  0  0  0  0  0  0  0  0  0  0
    3.4633   -1.0749    0.0000 C   0  0  0  0  0  0  0  0  0  0  0  0
    4.9404    1.4255    0.0000 C   0  0  0  0  0  0  0  0  0  0  0  0
    4.1149   -2.4111    0.0000 C   0  0  0  0  0  0  0  0  0  0  0  0
    5.7224    1.1628    0.0000 C   0  0  0  0  0  0  0  0  0  0  0  0
    4.7769    2.2342    0.0000 C   0  0  0  0  0  0  0  0  0  0  0  0
    3.4725   -2.9287    0.0000 C   0  0  0  0  0  0  0  0  0  0  0  0
    2.6673   -2.7491    0.0000 C   0  0  0  0  0  0  0  0  0  0  0  0
    6.3410    1.7087    0.0000 C   0  0  0  0  0  0  0  0  0  0  0  0
    5.3955    2.7801    0.0000 C   0  0  0  0  0  0  0  0  0  0  0  0
    6.1775    2.5173    0.0000 C   0  0  0  0  0  0  0  0  0  0  0  0
    5.3751   -1.9923    0.0000 C   0  0  0  0  0  0  0  0  0  0  0  0
    6.6326    3.8719    0.0000 C   0  0  0  0  0  0  0  0  0  0  0  0
  1 17  1  0  0  0  0
  2 17  1  0  0  0  0
  3 17  1  0  0  0  0
  4 14  1  0  0  0  0
  5 27  1  0  0  0  0
  5 29  1  0  0  0  0
  6  7  1  0  0  0  0
  6 14  1  0  0  0  0
  6 18  1  0  0  0  0
  7 16  2  0  0  0  0
  8 10  1  0  0  0  0
  8 18  1  0  0  0  0
  8 20  1  0  0  0  0
  9 12  1  0  0  0  0
  9 18  2  0  0  0  0
 10 28  2  0  0  0  0
 11 20  2  0  0  0  0
 11 28  1  0  0  0  0
 12 24  2  0  0  0  0
 13 24  1  0  0  0  0
 14 15  1  0  0  0  0
 14 17  1  0  0  0  0
 15 16  1  0  0  0  0
 16 19  1  0  0  0  0
 19 21  2  0  0  0  0
 19 22  1  0  0  0  0
 20 23  1  0  0  0  0
 21 25  1  0  0  0  0
 22 26  2  0  0  0  0
 23 24  1  0  0  0  0
 25 27  2  0  0  0  0
 26 27  1  0  0  0  0
M  END
> <From>
www.bindingDB.org

> <BindingDB Reactant_set_id>
95234

> <Ligand InChI>
InChI=1S/C16H15F3N8O2/c1-29-10-4-2-9(3-5-10)11-7-15(28,16(17,18)19)27(25-11)14-24-23-12(20)6-13-21-8-22-26(13)14/h2-5,8,28H,6-7H2,1H3,(H2,20,23)

> <Ligand InChI Key>
YCCNVVKAEYQHRK-UHFFFAOYSA-N

> <BindingDB MonomerID>
51349

> <BindingDB Ligand Name>
2-(8-amino-9H-[1,2,4]triazolo[1,5-d][1,2,4]triazepin-5-yl)-5-(4-methoxyphenyl)-3-(trifluoromethyl)-2-pyrazolin-3-ol::2-(8-amino-9H-[1,2,4]triazolo[1,5-d][1,2,4]triazepin-5-yl)-5-(4-methoxyphenyl)-3-(trifluoromethyl)-4H-pyrazol-3-ol::2-(8-azanyl-9H-[1,2,4]triazolo[1,5-d][1,2,4]triazepin-5-yl)-5-(4-methoxyphenyl)-3-(trifluoromethyl)-4H-pyrazol-3-ol::MLS000719377::SMR000290221::cid_4095928

> <Target Name>
DNA repair protein RAD51 homolog 1

> <Target Source Organism According to Curator or DataSource>
Homo sapiens

> <Ki (nM)>


> <IC50 (nM)>
 53000

> <Kd (nM)>


> <EC50 (nM)>


> <kon (M-1-s-1)>


> <koff (s-1)>


> <pH>


> <Temp C>


> <Curation/DataSource>
PubChem

> <Article DOI>


> <BindingDB Entry DOI>
10.7270/Q2QN6558

> <PMID>


> <PubChem AID>
aid1437

> <Patent Number>


> <Authors>
PubChem, PC

> <Date of publication>
11/25/2008

> <Date in BindingDB>
5/31/2011

> <Institution>
PCMD

> <Link to Ligand in BindingDB>
http://www.bindingdb.org/bind/chemsearch/marvin/MolStructure.jsp?monomerid=51349

> <Link to Ligand-Target Pair in BindingDB>
http://www.bindingdb.org/jsp/dbsearch/PrimarySearch_ki.jsp?energyterm=kJ/mole&tag=pol&polymerid=4676&target=DNA+repair+protein+RAD51+homolog+1&column=ki&startPg=0&Increment=50&submit=Search

> <Link to Ligand-Target Pair in BindingDB>
http://www.bindingdb.org/jsp/dbsearch/PrimarySearch_ki.jsp?energyterm=kJ/mole&tag=r21&monomerid=51349&enzyme=DNA+repair+protein+RAD51+homolog+1&column=ki&startPg=0&Increment=50&submit=Search

> <Ligand HET ID in PDB>


> <PDB ID(s) for Ligand-Target Complex>


> <PubChem CID of Ligand>
4095928

> <PubChem SID of Ligand>
252631572

> <ChEBI ID of Ligand>


> <ChEMBL ID of Ligand>


> <DrugBank ID of Ligand>


> <IUPHAR_GRAC ID of Ligand>


> <KEGG ID of Ligand>


> <ZINC ID of Ligand>
ZINC02870576

> <Number of Protein Chains in Target (bigger than 1 implies a multichain complex)>
1

> <BindingDB Target Chain Sequence>
MAMQMQLEANADTSVEEESFGPQPISRLEQCGINANDVKKLEEAGFHTVEAVAYAPKKELINIKGISEAKADKILAEAAKLVPMGFTTATEFHQRRSEIIQITTGSKELDKLLQGGIETGSITEMFGEFRTGKTQICHTLAVTCQLPIDRGGGEGKAMYIDTEGTFRPERLLAVAERYGLSGSDVLDNVAYARAFNTDHQTQLLYQASAMMVESRYALLIVDSATALYRTDYSGRGELSARQMHLARFLRMLLRLADEFGVAVVITNQVVAQVDGAAMFAADPKKPIGGNIIAHASTTRLYLRKGRGETRICKIYDSPCLPEAEAMFAINADGVGDAKD

> <PDB ID(s) of Target Chain>
1N0W,5JZC,5NP7,5NWL,8BQ2,8BR2,8BSC

> <UniProt (SwissProt) Recommended Name of Target Chain>
DNA repair protein RAD51 homolog 1

> <UniProt (SwissProt) Entry Name of Target Chain>
RAD51_HUMAN

> <UniProt (SwissProt) Primary ID of Target Chain>
Q06609

> <UniProt (SwissProt) Secondary ID(s) of Target Chain>
B0FXP0 B2R8T6 Q6FHX9 Q6ZNA8 Q9BV60

> <UniProt (SwissProt) Alternative ID(s) of Target Chain>


> <UniProt (TrEMBL) Submitted Name of Target Chain>


> <UniProt (TrEMBL) Entry Name of Target Chain>


> <UniProt (TrEMBL) Primary ID of Target Chain>


> <UniProt (TrEMBL) Secondary ID(s) of Target Chain>


> <UniProt (TrEMBL) Alternative ID(s) of Target Chain>


$$$$
1565307
  Mrv0541 11251415582D          

 25 26  0  0  0  0            999 V2000
    4.5080    2.4751    0.0000 O   0  0  0  0  0  0  0  0  0  0  0  0
    3.7935   -0.4125    0.0000 O   0  0  0  0  0  0  0  0  0  0  0  0
    2.3645   -3.7126    0.0000 N   0  0  0  0  0  0  0  0  0  0  0  0
    2.3645   -0.4125    0.0000 N   0  0  0  0  0  0  0  0  0  0  0  0
    2.3645   -2.8876    0.0000 C   0  0  0  0  0  0  0  0  0  0  0  0
    1.6500   -4.1251    0.0000 C   0  0  0  0  0  0  0  0  0  0  0  0
    3.0790   -4.1251    0.0000 C   0  0  0  0  0  0  0  0  0  0  0  0
    3.7935    1.2375    0.0000 C   0  0  0  0  0  0  0  0  0  0  0  0
    3.0790    0.8250    0.0000 C   0  0  0  0  0  0  0  0  0  0  0  0
    2.3645   -1.2375    0.0000 C   0  0  0  0  0  0  0  0  0  0  0  0
    3.0790   -2.4751    0.0000 C   0  0  0  0  0  0  0  0  0  0  0  0
    1.6500   -2.4751    0.0000 C   0  0  0  0  0  0  0  0  0  0  0  0
    3.0790   -1.6500    0.0000 C   0  0  0  0  0  0  0  0  0  0  0  0
    1.6500   -1.6500    0.0000 C   0  0  0  0  0  0  0  0  0  0  0  0
    3.7935    2.0625    0.0000 C   0  0  0  0  0  0  0  0  0  0  0  0
    3.0790   -4.9501    0.0000 C   0  0  0  0  0  0  0  0  0  0  0  0
    1.6500   -4.9501    0.0000 C   0  0  0  0  0  0  0  0  0  0  0  0
    3.0790    0.0000    0.0000 C   0  0  0  0  0  0  0  0  0  0  0  0
    4.5080    3.3001    0.0000 C   0  0  0  0  0  0  0  0  0  0  0  0
    5.2224    3.7126    0.0000 C   0  0  0  0  0  0  0  0  0  0  0  0
    5.2224    4.5376    0.0000 C   0  0  0  0  0  0  0  0  0  0  0  0
    3.7935    3.7126    0.0000 C   0  0  0  0  0  0  0  0  0  0  0  0
    4.5080    4.9501    0.0000 C   0  0  0  0  0  0  0  0  0  0  0  0
    3.7935    4.5376    0.0000 C   0  0  0  0  0  0  0  0  0  0  0  0
    5.9370    4.9501    0.0000 C   0  0  0  0  0  0  0  0  0  0  0  0
  1 15  1  0  0  0  0
  1 19  1  0  0  0  0
  2 18  2  0  0  0  0
  3  5  1  0  0  0  0
  3  6  1  0  0  0  0
  3  7  1  0  0  0  0
  4 10  1  0  0  0  0
  4 18  1  0  0  0  0
  5 11  2  0  0  0  0
  5 12  1  0  0  0  0
  6 17  1  0  0  0  0
  7 16  1  0  0  0  0
  8  9  1  0  0  0  0
  8 15  1  0  0  0  0
  9 18  1  0  0  0  0
 10 13  2  0  0  0  0
 10 14  1  0  0  0  0
 11 13  1  0  0  0  0
 12 14  2  0  0  0  0
 19 20  2  0  0  0  0
 19 22  1  0  0  0  0
 20 21  1  0  0  0  0
 21 23  2  0  0  0  0
 21 25  1  0  0  0  0
 22 24  2  0  0  0  0
 23 24  1  0  0  0  0
M  END
> <From>
www.bindingDB.org

> <BindingDB Reactant_set_id>
95235

> <Ligand InChI>
InChI=1S/C21H28N2O2/c1-4-23(5-2)19-13-11-18(12-14-19)22-21(24)10-7-15-25-20-9-6-8-17(3)16-20/h6,8-9,11-14,16H,4-5,7,10,15H2,1-3H3,(H,22,24)

> <Ligand InChI Key>
KUFVMVTZVVGGHY-UHFFFAOYSA-N

> <BindingDB MonomerID>
48844

> <BindingDB Ligand Name>
MLS000724120::N-[4-(diethylamino)phenyl]-4-(3-methylphenoxy)butanamide::N-[4-(diethylamino)phenyl]-4-(3-methylphenoxy)butyramide::SMR000305715::cid_1565307

> <Target Name>
DNA repair protein RAD51 homolog 1

> <Target Source Organism According to Curator or DataSource>
Homo sapiens

> <Ki (nM)>


> <IC50 (nM)>
 53000

> <Kd (nM)>


> <EC50 (nM)>


> <kon (M-1-s-1)>


> <koff (s-1)>


> <pH>


> <Temp C>


> <Curation/DataSource>
PubChem

> <Article DOI>


> <BindingDB Entry DOI>
10.7270/Q2QN6558

> <PMID>


> <PubChem AID>
aid1437

> <Patent Number>


> <Authors>
PubChem, PC

> <Date of publication>
11/25/2008

> <Date in BindingDB>
5/31/2011

> <Institution>
PCMD

> <Link to Ligand in BindingDB>
http://www.bindingdb.org/bind/chemsearch/marvin/MolStructure.jsp?monomerid=48844

> <Link to Ligand-Target Pair in BindingDB>
http://www.bindingdb.org/jsp/dbsearch/PrimarySearch_ki.jsp?energyterm=kJ/mole&tag=pol&polymerid=4676&target=DNA+repair+protein+RAD51+homolog+1&column=ki&startPg=0&Increment=50&submit=Search

> <Link to Ligand-Target Pair in BindingDB>
http://www.bindingdb.org/jsp/dbsearch/PrimarySearch_ki.jsp?energyterm=kJ/mole&tag=r21&monomerid=48844&enzyme=DNA+repair+protein+RAD51+homolog+1&column=ki&startPg=0&Increment=50&submit=Search

> <Ligand HET ID in PDB>


> <PDB ID(s) for Ligand-Target Complex>


> <PubChem CID of Ligand>
1565307

> <PubChem SID of Ligand>
252629131

> <ChEBI ID of Ligand>


> <ChEMBL ID of Ligand>


> <DrugBank ID of Ligand>


> <IUPHAR_GRAC ID of Ligand>


> <KEGG ID of Ligand>


> <ZINC ID of Ligand>
ZINC01773817

> <Number of Protein Chains in Target (bigger than 1 implies a multichain complex)>
1

> <BindingDB Target Chain Sequence>
MAMQMQLEANADTSVEEESFGPQPISRLEQCGINANDVKKLEEAGFHTVEAVAYAPKKELINIKGISEAKADKILAEAAKLVPMGFTTATEFHQRRSEIIQITTGSKELDKLLQGGIETGSITEMFGEFRTGKTQICHTLAVTCQLPIDRGGGEGKAMYIDTEGTFRPERLLAVAERYGLSGSDVLDNVAYARAFNTDHQTQLLYQASAMMVESRYALLIVDSATALYRTDYSGRGELSARQMHLARFLRMLLRLADEFGVAVVITNQVVAQVDGAAMFAADPKKPIGGNIIAHASTTRLYLRKGRGETRICKIYDSPCLPEAEAMFAINADGVGDAKD

> <PDB ID(s) of Target Chain>
1N0W,5JZC,5NP7,5NWL,8BQ2,8BR2,8BSC

> <UniProt (SwissProt) Recommended Name of Target Chain>
DNA repair protein RAD51 homolog 1

> <UniProt (SwissProt) Entry Name of Target Chain>
RAD51_HUMAN

> <UniProt (SwissProt) Primary ID of Target Chain>
Q06609

> <UniProt (SwissProt) Secondary ID(s) of Target Chain>
B0FXP0 B2R8T6 Q6FHX9 Q6ZNA8 Q9BV60

> <UniProt (SwissProt) Alternative ID(s) of Target Chain>


> <UniProt (TrEMBL) Submitted Name of Target Chain>


> <UniProt (TrEMBL) Entry Name of Target Chain>


> <UniProt (TrEMBL) Primary ID of Target Chain>


> <UniProt (TrEMBL) Secondary ID(s) of Target Chain>


> <UniProt (TrEMBL) Alternative ID(s) of Target Chain>


$$$$
5294653
  Mrv0541 11251416042D          

 24 26  0  0  0  0            999 V2000
    4.5741   -1.1717    0.0000 S   0  0  0  0  0  0  0  0  0  0  0  0
    2.3645    1.5547    0.0000 O   0  0  0  0  0  0  0  0  0  0  0  0
    6.2931    0.2067    0.0000 O   0  0  0  0  0  0  0  0  0  0  0  0
    8.3556   -1.9368    0.0000 O   0  0  0  0  0  0  0  0  0  0  0  0
    4.8304    0.9403    0.0000 N   0  0  0  0  0  0  0  0  0  0  0  0
    3.0789   -1.3328    0.0000 N   0  0  0  0  0  0  0  0  0  0  0  0
    6.2931   -1.2223    0.0000 N   0  0  0  0  0  0  0  0  0  0  0  0
    3.7935   -0.0953    0.0000 C   0  0  0  0  0  0  0  0  0  0  0  0
    4.5741    0.1561    0.0000 C   0  0  0  0  0  0  0  0  0  0  0  0
    3.0789    0.3172    0.0000 C   0  0  0  0  0  0  0  0  0  0  0  0
    3.7935   -0.9203    0.0000 C   0  0  0  0  0  0  0  0  0  0  0  0
    5.0556   -0.5078    0.0000 C   0  0  0  0  0  0  0  0  0  0  0  0
    2.3645   -0.0953    0.0000 C   0  0  0  0  0  0  0  0  0  0  0  0
    3.0789    1.1422    0.0000 C   0  0  0  0  0  0  0  0  0  0  0  0
    2.3645   -0.9203    0.0000 C   0  0  0  0  0  0  0  0  0  0  0  0
    5.8806   -0.5078    0.0000 C   0  0  0  0  0  0  0  0  0  0  0  0
    5.6155    1.1939    0.0000 C   0  0  0  0  0  0  0  0  0  0  0  0
    4.3467    1.6086    0.0000 C   0  0  0  0  0  0  0  0  0  0  0  0
    5.6169    2.0189    0.0000 C   0  0  0  0  0  0  0  0  0  0  0  0
    4.8328    2.2752    0.0000 C   0  0  0  0  0  0  0  0  0  0  0  0
    1.6500   -1.3328    0.0000 C   0  0  0  0  0  0  0  0  0  0  0  0
    7.1181   -1.2223    0.0000 C   0  0  0  0  0  0  0  0  0  0  0  0
    7.5306   -1.9368    0.0000 C   0  0  0  0  0  0  0  0  0  0  0  0
    2.3645    2.3797    0.0000 C   0  0  0  0  0  0  0  0  0  0  0  0
  1 11  1  0  0  0  0
  1 12  1  0  0  0  0
  2 14  1  0  0  0  0
  2 24  1  0  0  0  0
  3 16  2  0  0  0  0
  4 23  1  0  0  0  0
  5  9  1  0  0  0  0
  5 17  1  0  0  0  0
  5 18  1  0  0  0  0
  6 11  2  0  0  0  0
  6 15  1  0  0  0  0
  7 16  1  0  0  0  0
  7 22  1  0  0  0  0
  8  9  1  0  0  0  0
  8 10  2  0  0  0  0
  8 11  1  0  0  0  0
  9 12  2  0  0  0  0
 10 13  1  0  0  0  0
 10 14  1  0  0  0  0
 12 16  1  0  0  0  0
 13 15  2  0  0  0  0
 15 21  1  0  0  0  0
 17 19  2  0  0  0  0
 18 20  2  0  0  0  0
 19 20  1  0  0  0  0
 22 23  1  0  0  0  0
M  END
> <From>
www.bindingDB.org

> <BindingDB Reactant_set_id>
95236

> <Ligand InChI>
InChI=1S/C17H19N3O3S/c1-11-9-12(10-23-2)13-14(20-6-3-4-7-20)15(24-17(13)19-11)16(22)18-5-8-21/h3-4,6-7,9,21H,5,8,10H2,1-2H3,(H,18,22)

> <Ligand InChI Key>
WXVGGDIPJKLODY-UHFFFAOYSA-N

> <BindingDB MonomerID>
51350

> <BindingDB Ligand Name>
MLS000681585::N-(2-hydroxyethyl)-4-(methoxymethyl)-6-methyl-3-(1-pyrrolyl)-2-thieno[2,3-b]pyridinecarboxamide::N-(2-hydroxyethyl)-4-(methoxymethyl)-6-methyl-3-(1H-pyrrol-1-yl)thieno[2,3-b]pyridine-2-carboxamide::N-(2-hydroxyethyl)-4-(methoxymethyl)-6-methyl-3-pyrrol-1-yl-thieno[2,3-b]pyridine-2-carboxamide::N-(2-hydroxyethyl)-4-(methoxymethyl)-6-methyl-3-pyrrol-1-ylthieno[2,3-b]pyridine-2-carboxamide::SMR000312262::cid_5294653

> <Target Name>
DNA repair protein RAD51 homolog 1

> <Target Source Organism According to Curator or DataSource>
Homo sapiens

> <Ki (nM)>


> <IC50 (nM)>
 53000

> <Kd (nM)>


> <EC50 (nM)>


> <kon (M-1-s-1)>


> <koff (s-1)>


> <pH>


> <Temp C>


> <Curation/DataSource>
PubChem

> <Article DOI>


> <BindingDB Entry DOI>
10.7270/Q2QN6558

> <PMID>


> <PubChem AID>
aid1437

> <Patent Number>


> <Authors>
PubChem, PC

> <Date of publication>
11/25/2008

> <Date in BindingDB>
5/31/2011

> <Institution>
PCMD

> <Link to Ligand in BindingDB>
http://www.bindingdb.org/bind/chemsearch/marvin/MolStructure.jsp?monomerid=51350

> <Link to Ligand-Target Pair in BindingDB>
http://www.bindingdb.org/jsp/dbsearch/PrimarySearch_ki.jsp?energyterm=kJ/mole&tag=pol&polymerid=4676&target=DNA+repair+protein+RAD51+homolog+1&column=ki&startPg=0&Increment=50&submit=Search

> <Link to Ligand-Target Pair in BindingDB>
http://www.bindingdb.org/jsp/dbsearch/PrimarySearch_ki.jsp?energyterm=kJ/mole&tag=r21&monomerid=51350&enzyme=DNA+repair+protein+RAD51+homolog+1&column=ki&startPg=0&Increment=50&submit=Search

> <Ligand HET ID in PDB>


> <PDB ID(s) for Ligand-Target Complex>


> <PubChem CID of Ligand>
5294653

> <PubChem SID of Ligand>
252631573

> <ChEBI ID of Ligand>


> <ChEMBL ID of Ligand>


> <DrugBank ID of Ligand>


> <IUPHAR_GRAC ID of Ligand>


> <KEGG ID of Ligand>
C04080

> <ZINC ID of Ligand>
ZINC01912276

> <Number of Protein Chains in Target (bigger than 1 implies a multichain complex)>
1

> <BindingDB Target Chain Sequence>
MAMQMQLEANADTSVEEESFGPQPISRLEQCGINANDVKKLEEAGFHTVEAVAYAPKKELINIKGISEAKADKILAEAAKLVPMGFTTATEFHQRRSEIIQITTGSKELDKLLQGGIETGSITEMFGEFRTGKTQICHTLAVTCQLPIDRGGGEGKAMYIDTEGTFRPERLLAVAERYGLSGSDVLDNVAYARAFNTDHQTQLLYQASAMMVESRYALLIVDSATALYRTDYSGRGELSARQMHLARFLRMLLRLADEFGVAVVITNQVVAQVDGAAMFAADPKKPIGGNIIAHASTTRLYLRKGRGETRICKIYDSPCLPEAEAMFAINADGVGDAKD

> <PDB ID(s) of Target Chain>
1N0W,5JZC,5NP7,5NWL,8BQ2,8BR2,8BSC

> <UniProt (SwissProt) Recommended Name of Target Chain>
DNA repair protein RAD51 homolog 1

> <UniProt (SwissProt) Entry Name of Target Chain>
RAD51_HUMAN

> <UniProt (SwissProt) Primary ID of Target Chain>
Q06609

> <UniProt (SwissProt) Secondary ID(s) of Target Chain>
B0FXP0 B2R8T6 Q6FHX9 Q6ZNA8 Q9BV60

> <UniProt (SwissProt) Alternative ID(s) of Target Chain>


> <UniProt (TrEMBL) Submitted Name of Target Chain>


> <UniProt (TrEMBL) Entry Name of Target Chain>


> <UniProt (TrEMBL) Primary ID of Target Chain>


> <UniProt (TrEMBL) Secondary ID(s) of Target Chain>


> <UniProt (TrEMBL) Alternative ID(s) of Target Chain>


$$$$
4920416
  Mrv0541 11251416042D          

 23 26  0  0  1  0            999 V2000
    5.0555    0.0000    0.0000 O   0  0  0  0  0  0  0  0  0  0  0  0
    1.6500   -0.8250    0.0000 O   0  0  0  0  0  0  0  0  0  0  0  0
    4.8304    1.4480    0.0000 O   0  0  0  0  0  0  0  0  0  0  0  0
    3.0789   -0.8250    0.0000 N   0  0  0  0  0  0  0  0  0  0  0  0
    3.0789    0.8250    0.0000 C   0  0  0  0  0  0  0  0  0  0  0  0
    3.7934    0.4125    0.0000 C   0  0  0  0  0  0  0  0  0  0  0  0
    2.3644    0.4125    0.0000 C   0  0  0  0  0  0  0  0  0  0  0  0
    3.7934   -0.4125    0.0000 C   0  0  0  0  0  0  0  0  0  0  0  0
    2.3644   -0.4125    0.0000 C   0  0  0  0  0  0  0  0  0  0  0  0
    3.0789    1.6500    0.0000 C   0  0  0  0  0  0  0  0  0  0  0  0
    4.5740   -0.6639    0.0000 C   0  0  0  0  0  0  0  0  0  0  0  0
    4.5740    0.6639    0.0000 C   0  0  0  0  0  0  0  0  0  0  0  0
    3.0789   -1.6500    0.0000 C   0  0  0  0  0  0  0  0  0  0  0  0
    3.7934    2.0625    0.0000 C   0  0  0  0  0  0  0  0  0  0  0  0
    2.3644    2.0625    0.0000 C   0  0  0  0  0  0  0  0  0  0  0  0
    2.3644   -2.0625    0.0000 C   0  0  0  0  0  0  0  0  0  0  0  0
    3.7934   -2.0625    0.0000 C   0  0  0  0  0  0  0  0  0  0  0  0
    3.7934    2.8875    0.0000 C   0  0  0  0  0  0  0  0  0  0  0  0
    2.3644    2.8875    0.0000 C   0  0  0  0  0  0  0  0  0  0  0  0
    3.0789    3.3000    0.0000 C   0  0  0  0  0  0  0  0  0  0  0  0
    2.3644   -2.8875    0.0000 C   0  0  0  0  0  0  0  0  0  0  0  0
    3.7934   -2.8875    0.0000 C   0  0  0  0  0  0  0  0  0  0  0  0
    3.0789   -3.3000    0.0000 C   0  0  0  0  0  0  0  0  0  0  0  0
  1 11  1  0  0  0  0
  1 12  1  0  0  0  0
  2  9  2  0  0  0  0
  3 12  2  0  0  0  0
  4  8  1  0  0  0  0
  4  9  1  0  0  0  0
  4 13  1  0  0  0  0
  5  6  1  0  0  0  0
  5  7  1  0  0  0  0
  5 10  1  0  0  0  0
  6  8  2  0  0  0  0
  6 12  1  0  0  0  0
  7  9  1  0  0  0  0
  8 11  1  0  0  0  0
 10 14  2  0  0  0  0
 10 15  1  0  0  0  0
 13 16  2  0  0  0  0
 13 17  1  0  0  0  0
 14 18  1  0  0  0  0
 15 19  2  0  0  0  0
 16 21  1  0  0  0  0
 17 22  2  0  0  0  0
 18 20  2  0  0  0  0
 19 20  1  0  0  0  0
 21 23  2  0  0  0  0
 22 23  1  0  0  0  0
M  END
> <From>
www.bindingDB.org

> <BindingDB Reactant_set_id>
95237

> <Ligand InChI>
InChI=1S/C19H15NO3/c21-17-11-15(13-7-3-1-4-8-13)18-16(12-23-19(18)22)20(17)14-9-5-2-6-10-14/h1-10,15H,11-12H2

> <Ligand InChI Key>
SODYPYQMKKIOKU-UHFFFAOYSA-N

> <BindingDB MonomerID>
51351

> <BindingDB Ligand Name>
1,4-diphenyl-4,7-dihydro-3H-furo[3,4-b]pyridine-2,5-dione::1,4-diphenyl-4,7-dihydro-3H-furo[3,4-b]pyridine-2,5-quinone::1,4-diphenyl-4,7-dihydrofuro[3,4-b]pyridine-2,5(1H,3H)-dione::MLS000681577::SMR000312254::cid_4920416

> <Target Name>
DNA repair protein RAD51 homolog 1

> <Target Source Organism According to Curator or DataSource>
Homo sapiens

> <Ki (nM)>


> <IC50 (nM)>
 53000

> <Kd (nM)>


> <EC50 (nM)>


> <kon (M-1-s-1)>


> <koff (s-1)>


> <pH>


> <Temp C>


> <Curation/DataSource>
PubChem

> <Article DOI>


> <BindingDB Entry DOI>
10.7270/Q2QN6558

> <PMID>


> <PubChem AID>
aid1437

> <Patent Number>


> <Authors>
PubChem, PC

> <Date of publication>
11/25/2008

> <Date in BindingDB>
5/31/2011

> <Institution>
PCMD

> <Link to Ligand in BindingDB>
http://www.bindingdb.org/bind/chemsearch/marvin/MolStructure.jsp?monomerid=51351

> <Link to Ligand-Target Pair in BindingDB>
http://www.bindingdb.org/jsp/dbsearch/PrimarySearch_ki.jsp?energyterm=kJ/mole&tag=pol&polymerid=4676&target=DNA+repair+protein+RAD51+homolog+1&column=ki&startPg=0&Increment=50&submit=Search

> <Link to Ligand-Target Pair in BindingDB>
http://www.bindingdb.org/jsp/dbsearch/PrimarySearch_ki.jsp?energyterm=kJ/mole&tag=r21&monomerid=51351&enzyme=DNA+repair+protein+RAD51+homolog+1&column=ki&startPg=0&Increment=50&submit=Search

> <Ligand HET ID in PDB>


> <PDB ID(s) for Ligand-Target Complex>


> <PubChem CID of Ligand>
4920416

> <PubChem SID of Ligand>
252631574

> <ChEBI ID of Ligand>


> <ChEMBL ID of Ligand>


> <DrugBank ID of Ligand>


> <IUPHAR_GRAC ID of Ligand>


> <KEGG ID of Ligand>


> <ZINC ID of Ligand>
ZINC18154321

> <Number of Protein Chains in Target (bigger than 1 implies a multichain complex)>
1

> <BindingDB Target Chain Sequence>
MAMQMQLEANADTSVEEESFGPQPISRLEQCGINANDVKKLEEAGFHTVEAVAYAPKKELINIKGISEAKADKILAEAAKLVPMGFTTATEFHQRRSEIIQITTGSKELDKLLQGGIETGSITEMFGEFRTGKTQICHTLAVTCQLPIDRGGGEGKAMYIDTEGTFRPERLLAVAERYGLSGSDVLDNVAYARAFNTDHQTQLLYQASAMMVESRYALLIVDSATALYRTDYSGRGELSARQMHLARFLRMLLRLADEFGVAVVITNQVVAQVDGAAMFAADPKKPIGGNIIAHASTTRLYLRKGRGETRICKIYDSPCLPEAEAMFAINADGVGDAKD

> <PDB ID(s) of Target Chain>
1N0W,5JZC,5NP7,5NWL,8BQ2,8BR2,8BSC

> <UniProt (SwissProt) Recommended Name of Target Chain>
DNA repair protein RAD51 homolog 1

> <UniProt (SwissProt) Entry Name of Target Chain>
RAD51_HUMAN

> <UniProt (SwissProt) Primary ID of Target Chain>
Q06609

> <UniProt (SwissProt) Secondary ID(s) of Target Chain>
B0FXP0 B2R8T6 Q6FHX9 Q6ZNA8 Q9BV60

> <UniProt (SwissProt) Alternative ID(s) of Target Chain>


> <UniProt (TrEMBL) Submitted Name of Target Chain>


> <UniProt (TrEMBL) Entry Name of Target Chain>


> <UniProt (TrEMBL) Primary ID of Target Chain>


> <UniProt (TrEMBL) Secondary ID(s) of Target Chain>


> <UniProt (TrEMBL) Alternative ID(s) of Target Chain>


$$$$
4582595
  Mrv0541 11251416042D          

 26 28  0  0  0  0            999 V2000
    3.7935   -4.3313    0.0000 F   0  0  0  0  0  0  0  0  0  0  0  0
    3.7935    0.6188    0.0000 O   0  0  0  0  0  0  0  0  0  0  0  0
    6.6515    1.4438    0.0000 O   0  0  0  0  0  0  0  0  0  0  0  0
    5.2224    1.4438    0.0000 N   0  0  0  0  0  0  0  0  0  0  0  0
    4.5080   -0.6188    0.0000 N   0  0  0  0  0  0  0  0  0  0  0  0
    4.5080    1.8563    0.0000 N   0  0  0  0  0  0  0  0  0  0  0  0
    5.2224    0.6188    0.0000 C   0  0  0  0  0  0  0  0  0  0  0  0
    4.5080    2.6813    0.0000 C   0  0  0  0  0  0  0  0  0  0  0  0
    3.7935    3.0938    0.0000 C   0  0  0  0  0  0  0  0  0  0  0  0
    3.7935   -1.0313    0.0000 C   0  0  0  0  0  0  0  0  0  0  0  0
    4.5080    0.2063    0.0000 C   0  0  0  0  0  0  0  0  0  0  0  0
    3.7935   -1.8563    0.0000 C   0  0  0  0  0  0  0  0  0  0  0  0
    5.9370    1.8563    0.0000 C   0  0  0  0  0  0  0  0  0  0  0  0
    5.2224    3.0938    0.0000 C   0  0  0  0  0  0  0  0  0  0  0  0
    3.7935    3.9188    0.0000 C   0  0  0  0  0  0  0  0  0  0  0  0
    3.0790    2.6813    0.0000 C   0  0  0  0  0  0  0  0  0  0  0  0
    2.3645    3.9188    0.0000 C   0  0  0  0  0  0  0  0  0  0  0  0
    5.9370    2.6813    0.0000 C   0  0  0  0  0  0  0  0  0  0  0  0
    3.0790    4.3313    0.0000 C   0  0  0  0  0  0  0  0  0  0  0  0
    2.3645    3.0938    0.0000 C   0  0  0  0  0  0  0  0  0  0  0  0
    3.0790   -2.2688    0.0000 C   0  0  0  0  0  0  0  0  0  0  0  0
    4.5080   -2.2688    0.0000 C   0  0  0  0  0  0  0  0  0  0  0  0
    1.6500    4.3313    0.0000 C   0  0  0  0  0  0  0  0  0  0  0  0
    3.0790   -3.0938    0.0000 C   0  0  0  0  0  0  0  0  0  0  0  0
    4.5080   -3.0938    0.0000 C   0  0  0  0  0  0  0  0  0  0  0  0
    3.7935   -3.5063    0.0000 C   0  0  0  0  0  0  0  0  0  0  0  0
  1 26  1  0  0  0  0
  2 11  2  0  0  0  0
  3 13  2  0  0  0  0
  4  6  1  0  0  0  0
  4  7  1  0  0  0  0
  4 13  1  0  0  0  0
  5 10  1  0  0  0  0
  5 11  1  0  0  0  0
  6  8  2  0  0  0  0
  7 11  1  0  0  0  0
  8  9  1  0  0  0  0
  8 14  1  0  0  0  0
  9 15  2  0  0  0  0
  9 16  1  0  0  0  0
 10 12  1  0  0  0  0
 12 21  2  0  0  0  0
 12 22  1  0  0  0  0
 13 18  1  0  0  0  0
 14 18  2  0  0  0  0
 15 19  1  0  0  0  0
 16 20  2  0  0  0  0
 17 19  2  0  0  0  0
 17 20  1  0  0  0  0
 17 23  1  0  0  0  0
 21 24  1  0  0  0  0
 22 25  2  0  0  0  0
 24 26  2  0  0  0  0
 25 26  1  0  0  0  0
M  END
> <From>
www.bindingDB.org

> <BindingDB Reactant_set_id>
95238

> <Ligand InChI>
InChI=1S/C20H18FN3O2/c1-14-2-6-16(7-3-14)18-10-11-20(26)24(23-18)13-19(25)22-12-15-4-8-17(21)9-5-15/h2-11H,12-13H2,1H3,(H,22,25)

> <Ligand InChI Key>
OIRBGYAPDDXDSO-UHFFFAOYSA-N

> <BindingDB MonomerID>
51352

> <BindingDB Ligand Name>
MLS000685265::N-(4-fluorobenzyl)-2-[3-(4-methylphenyl)-6-oxopyridazin-1(6H)-yl]acetamide::N-(4-fluorobenzyl)-2-[6-keto-3-(p-tolyl)pyridazin-1-yl]acetamide::N-[(4-fluorophenyl)methyl]-2-[3-(4-methylphenyl)-6-oxidanylidene-pyridazin-1-yl]ethanamide::N-[(4-fluorophenyl)methyl]-2-[3-(4-methylphenyl)-6-oxo-1-pyridazinyl]acetamide::N-[(4-fluorophenyl)methyl]-2-[3-(4-methylphenyl)-6-oxopyridazin-1-yl]acetamide::SMR000311503::cid_4582595

> <Target Name>
DNA repair protein RAD51 homolog 1

> <Target Source Organism According to Curator or DataSource>
Homo sapiens

> <Ki (nM)>


> <IC50 (nM)>
 53000

> <Kd (nM)>


> <EC50 (nM)>


> <kon (M-1-s-1)>


> <koff (s-1)>


> <pH>


> <Temp C>


> <Curation/DataSource>
PubChem

> <Article DOI>


> <BindingDB Entry DOI>
10.7270/Q2QN6558

> <PMID>


> <PubChem AID>
aid1437

> <Patent Number>


> <Authors>
PubChem, PC

> <Date of publication>
11/25/2008

> <Date in BindingDB>
5/31/2011

> <Institution>
PCMD

> <Link to Ligand in BindingDB>
http://www.bindingdb.org/bind/chemsearch/marvin/MolStructure.jsp?monomerid=51352

> <Link to Ligand-Target Pair in BindingDB>
http://www.bindingdb.org/jsp/dbsearch/PrimarySearch_ki.jsp?energyterm=kJ/mole&tag=pol&polymerid=4676&target=DNA+repair+protein+RAD51+homolog+1&column=ki&startPg=0&Increment=50&submit=Search

> <Link to Ligand-Target Pair in BindingDB>
http://www.bindingdb.org/jsp/dbsearch/PrimarySearch_ki.jsp?energyterm=kJ/mole&tag=r21&monomerid=51352&enzyme=DNA+repair+protein+RAD51+homolog+1&column=ki&startPg=0&Increment=50&submit=Search

> <Ligand HET ID in PDB>


> <PDB ID(s) for Ligand-Target Complex>


> <PubChem CID of Ligand>
4582595

> <PubChem SID of Ligand>
252631575

> <ChEBI ID of Ligand>


> <ChEMBL ID of Ligand>


> <DrugBank ID of Ligand>


> <IUPHAR_GRAC ID of Ligand>


> <KEGG ID of Ligand>


> <ZINC ID of Ligand>
ZINC18227633

> <Number of Protein Chains in Target (bigger than 1 implies a multichain complex)>
1

> <BindingDB Target Chain Sequence>
MAMQMQLEANADTSVEEESFGPQPISRLEQCGINANDVKKLEEAGFHTVEAVAYAPKKELINIKGISEAKADKILAEAAKLVPMGFTTATEFHQRRSEIIQITTGSKELDKLLQGGIETGSITEMFGEFRTGKTQICHTLAVTCQLPIDRGGGEGKAMYIDTEGTFRPERLLAVAERYGLSGSDVLDNVAYARAFNTDHQTQLLYQASAMMVESRYALLIVDSATALYRTDYSGRGELSARQMHLARFLRMLLRLADEFGVAVVITNQVVAQVDGAAMFAADPKKPIGGNIIAHASTTRLYLRKGRGETRICKIYDSPCLPEAEAMFAINADGVGDAKD

> <PDB ID(s) of Target Chain>
1N0W,5JZC,5NP7,5NWL,8BQ2,8BR2,8BSC

> <UniProt (SwissProt) Recommended Name of Target Chain>
DNA repair protein RAD51 homolog 1

> <UniProt (SwissProt) Entry Name of Target Chain>
RAD51_HUMAN

> <UniProt (SwissProt) Primary ID of Target Chain>
Q06609

> <UniProt (SwissProt) Secondary ID(s) of Target Chain>
B0FXP0 B2R8T6 Q6FHX9 Q6ZNA8 Q9BV60

> <UniProt (SwissProt) Alternative ID(s) of Target Chain>


> <UniProt (TrEMBL) Submitted Name of Target Chain>


> <UniProt (TrEMBL) Entry Name of Target Chain>


> <UniProt (TrEMBL) Primary ID of Target Chain>


> <UniProt (TrEMBL) Secondary ID(s) of Target Chain>


> <UniProt (TrEMBL) Alternative ID(s) of Target Chain>


$$$$
5093114
  Mrv0541 11251416042D          

 20 22  0  0  1  0            999 V2000
    7.2868    0.8263    0.0000 O   0  0  0  0  0  0  0  0  0  0  0  0
    4.2111    0.0193    0.0000 O   0  0  0  0  0  0  0  0  0  0  0  0
    5.8347    0.5963    0.0000 N   0  0  0  0  0  0  0  0  0  0  0  0
    3.7695    1.3783    0.0000 N   0  0  0  0  0  0  0  0  0  0  0  0
    5.8347   -0.2287    0.0000 C   0  0  0  0  0  0  0  0  0  0  0  0
    5.1672    1.0813    0.0000 C   0  0  0  0  0  0  0  0  0  0  0  0
    5.1202   -0.6412    0.0000 C   0  0  0  0  0  0  0  0  0  0  0  0
    6.5491   -0.6412    0.0000 C   0  0  0  0  0  0  0  0  0  0  0  0
    5.4222    1.8659    0.0000 C   0  0  0  0  0  0  0  0  0  0  0  0
    2.9849    1.1234    0.0000 C   0  0  0  0  0  0  0  0  0  0  0  0
    6.5491   -1.4662    0.0000 C   0  0  0  0  0  0  0  0  0  0  0  0
    5.1202   -1.4662    0.0000 C   0  0  0  0  0  0  0  0  0  0  0  0
    5.8347   -1.8787    0.0000 C   0  0  0  0  0  0  0  0  0  0  0  0
    6.2472    1.8659    0.0000 C   0  0  0  0  0  0  0  0  0  0  0  0
    6.5021    1.0813    0.0000 C   0  0  0  0  0  0  0  0  0  0  0  0
    2.7299    0.3387    0.0000 C   0  0  0  0  0  0  0  0  0  0  0  0
    2.3174    1.6083    0.0000 C   0  0  0  0  0  0  0  0  0  0  0  0
    4.3826    0.8263    0.0000 C   0  0  0  0  0  0  0  0  0  0  0  0
    1.6500    1.1234    0.0000 C   0  0  0  0  0  0  0  0  0  0  0  0
    1.9049    0.3387    0.0000 C   0  0  0  0  0  0  0  0  0  0  0  0
  1 15  2  0  0  0  0
  2 18  2  0  0  0  0
  3  5  1  0  0  0  0
  3  6  1  0  0  0  0
  3 15  1  0  0  0  0
  4 10  1  0  0  0  0
  4 18  1  0  0  0  0
  5  7  1  0  0  0  0
  5  8  1  0  0  0  0
  6  9  1  0  0  0  0
  6 18  1  0  0  0  0
  7 12  1  0  0  0  0
  8 11  1  0  0  0  0
  9 14  1  0  0  0  0
 10 16  1  0  0  0  0
 10 17  1  0  0  0  0
 11 13  1  0  0  0  0
 12 13  1  0  0  0  0
 14 15  1  0  0  0  0
 16 20  1  0  0  0  0
 17 19  1  0  0  0  0
 19 20  1  0  0  0  0
M  END
> <From>
www.bindingDB.org

> <BindingDB Reactant_set_id>
95239

> <Ligand InChI>
InChI=1S/C16H26N2O2/c19-15-11-10-14(16(20)17-12-6-4-5-7-12)18(15)13-8-2-1-3-9-13/h12-14H,1-11H2,(H,17,20)

> <Ligand InChI Key>
QSWQHWWUXOVMRI-UHFFFAOYSA-N

> <BindingDB MonomerID>
51353

> <BindingDB Ligand Name>
1-cyclohexyl-N-cyclopentyl-5-keto-pyrrolidine-2-carboxamide::1-cyclohexyl-N-cyclopentyl-5-oxidanylidene-pyrrolidine-2-carboxamide::1-cyclohexyl-N-cyclopentyl-5-oxo-2-pyrrolidinecarboxamide::1-cyclohexyl-N-cyclopentyl-5-oxoprolinamide::1-cyclohexyl-N-cyclopentyl-5-oxopyrrolidine-2-carboxamide::MLS000685247::SMR000311485::cid_5093114

> <Target Name>
DNA repair protein RAD51 homolog 1

> <Target Source Organism According to Curator or DataSource>
Homo sapiens

> <Ki (nM)>


> <IC50 (nM)>
 53000

> <Kd (nM)>


> <EC50 (nM)>


> <kon (M-1-s-1)>


> <koff (s-1)>


> <pH>


> <Temp C>


> <Curation/DataSource>
PubChem

> <Article DOI>


> <BindingDB Entry DOI>
10.7270/Q2QN6558

> <PMID>


> <PubChem AID>
aid1437

> <Patent Number>


> <Authors>
PubChem, PC

> <Date of publication>
11/25/2008

> <Date in BindingDB>
5/31/2011

> <Institution>
PCMD

> <Link to Ligand in BindingDB>
http://www.bindingdb.org/bind/chemsearch/marvin/MolStructure.jsp?monomerid=51353

> <Link to Ligand-Target Pair in BindingDB>
http://www.bindingdb.org/jsp/dbsearch/PrimarySearch_ki.jsp?energyterm=kJ/mole&tag=pol&polymerid=4676&target=DNA+repair+protein+RAD51+homolog+1&column=ki&startPg=0&Increment=50&submit=Search

> <Link to Ligand-Target Pair in BindingDB>
http://www.bindingdb.org/jsp/dbsearch/PrimarySearch_ki.jsp?energyterm=kJ/mole&tag=r21&monomerid=51353&enzyme=DNA+repair+protein+RAD51+homolog+1&column=ki&startPg=0&Increment=50&submit=Search

> <Ligand HET ID in PDB>


> <PDB ID(s) for Ligand-Target Complex>


> <PubChem CID of Ligand>
5093114

> <PubChem SID of Ligand>
252631576

> <ChEBI ID of Ligand>


> <ChEMBL ID of Ligand>


> <DrugBank ID of Ligand>


> <IUPHAR_GRAC ID of Ligand>


> <KEGG ID of Ligand>


> <ZINC ID of Ligand>
ZINC13468496

> <Number of Protein Chains in Target (bigger than 1 implies a multichain complex)>
1

> <BindingDB Target Chain Sequence>
MAMQMQLEANADTSVEEESFGPQPISRLEQCGINANDVKKLEEAGFHTVEAVAYAPKKELINIKGISEAKADKILAEAAKLVPMGFTTATEFHQRRSEIIQITTGSKELDKLLQGGIETGSITEMFGEFRTGKTQICHTLAVTCQLPIDRGGGEGKAMYIDTEGTFRPERLLAVAERYGLSGSDVLDNVAYARAFNTDHQTQLLYQASAMMVESRYALLIVDSATALYRTDYSGRGELSARQMHLARFLRMLLRLADEFGVAVVITNQVVAQVDGAAMFAADPKKPIGGNIIAHASTTRLYLRKGRGETRICKIYDSPCLPEAEAMFAINADGVGDAKD

> <PDB ID(s) of Target Chain>
1N0W,5JZC,5NP7,5NWL,8BQ2,8BR2,8BSC

> <UniProt (SwissProt) Recommended Name of Target Chain>
DNA repair protein RAD51 homolog 1

> <UniProt (SwissProt) Entry Name of Target Chain>
RAD51_HUMAN

> <UniProt (SwissProt) Primary ID of Target Chain>
Q06609

> <UniProt (SwissProt) Secondary ID(s) of Target Chain>
B0FXP0 B2R8T6 Q6FHX9 Q6ZNA8 Q9BV60

> <UniProt (SwissProt) Alternative ID(s) of Target Chain>


> <UniProt (TrEMBL) Submitted Name of Target Chain>


> <UniProt (TrEMBL) Entry Name of Target Chain>


> <UniProt (TrEMBL) Primary ID of Target Chain>


> <UniProt (TrEMBL) Secondary ID(s) of Target Chain>


> <UniProt (TrEMBL) Alternative ID(s) of Target Chain>


$$$$
4119957
  Mrv0541 11251416042D          

 28 29  0  0  0  0            999 V2000
    8.7949   -4.7439    0.0000 Cl  0  0  0  0  0  0  0  0  0  0  0  0
    7.3659   -1.4438    0.0000 S   0  0  0  0  0  0  0  0  0  0  0  0
    8.1909   -1.4438    0.0000 O   0  0  0  0  0  0  0  0  0  0  0  0
    6.5409   -1.4438    0.0000 O   0  0  0  0  0  0  0  0  0  0  0  0
    7.3659    1.0313    0.0000 O   0  0  0  0  0  0  0  0  0  0  0  0
    3.0790    3.5063    0.0000 O   0  0  0  0  0  0  0  0  0  0  0  0
    4.5080    4.3313    0.0000 O   0  0  0  0  0  0  0  0  0  0  0  0
    5.9370    1.0313    0.0000 N   0  0  0  0  0  0  0  0  0  0  0  0
    7.3659   -0.6188    0.0000 C   0  0  0  0  0  0  0  0  0  0  0  0
    7.3659   -2.2688    0.0000 C   0  0  0  0  0  0  0  0  0  0  0  0
    6.6515   -0.2063    0.0000 C   0  0  0  0  0  0  0  0  0  0  0  0
    8.0804   -2.6813    0.0000 C   0  0  0  0  0  0  0  0  0  0  0  0
    6.6515    0.6188    0.0000 C   0  0  0  0  0  0  0  0  0  0  0  0
    5.9370    1.8563    0.0000 C   0  0  0  0  0  0  0  0  0  0  0  0
    5.2224    2.2688    0.0000 C   0  0  0  0  0  0  0  0  0  0  0  0
    8.0804   -3.5063    0.0000 C   0  0  0  0  0  0  0  0  0  0  0  0
    8.7949   -2.2688    0.0000 C   0  0  0  0  0  0  0  0  0  0  0  0
    5.2224    3.0938    0.0000 C   0  0  0  0  0  0  0  0  0  0  0  0
    4.5080    1.8563    0.0000 C   0  0  0  0  0  0  0  0  0  0  0  0
    8.7949   -3.9188    0.0000 C   0  0  0  0  0  0  0  0  0  0  0  0
    9.5094   -2.6813    0.0000 C   0  0  0  0  0  0  0  0  0  0  0  0
    4.5080    3.5063    0.0000 C   0  0  0  0  0  0  0  0  0  0  0  0
    3.7935    3.0938    0.0000 C   0  0  0  0  0  0  0  0  0  0  0  0
    3.7935    2.2688    0.0000 C   0  0  0  0  0  0  0  0  0  0  0  0
    9.5094   -3.5063    0.0000 C   0  0  0  0  0  0  0  0  0  0  0  0
    2.3645    3.0938    0.0000 C   0  0  0  0  0  0  0  0  0  0  0  0
    1.6500    3.5063    0.0000 C   0  0  0  0  0  0  0  0  0  0  0  0
    5.2224    4.7439    0.0000 C   0  0  0  0  0  0  0  0  0  0  0  0
  1 20  1  0  0  0  0
  2  3  2  0  0  0  0
  2  4  2  0  0  0  0
  2  9  1  0  0  0  0
  2 10  1  0  0  0  0
  5 13  2  0  0  0  0
  6 23  1  0  0  0  0
  6 26  1  0  0  0  0
  7 22  1  0  0  0  0
  7 28  1  0  0  0  0
  8 13  1  0  0  0  0
  8 14  1  0  0  0  0
  9 11  1  0  0  0  0
 10 12  1  0  0  0  0
 11 13  1  0  0  0  0
 12 16  2  0  0  0  0
 12 17  1  0  0  0  0
 14 15  1  0  0  0  0
 15 18  2  0  0  0  0
 15 19  1  0  0  0  0
 16 20  1  0  0  0  0
 17 21  2  0  0  0  0
 18 22  1  0  0  0  0
 19 24  2  0  0  0  0
 20 25  2  0  0  0  0
 21 25  1  0  0  0  0
 22 23  2  0  0  0  0
 23 24  1  0  0  0  0
 26 27  1  0  0  0  0
M  END
> <From>
www.bindingDB.org

> <BindingDB Reactant_set_id>
95240

> <Ligand InChI>
InChI=1S/C20H24ClNO5S/c1-3-27-18-8-7-15(12-19(18)26-2)13-22-20(23)9-10-28(24,25)14-16-5-4-6-17(21)11-16/h4-8,11-12H,3,9-10,13-14H2,1-2H3,(H,22,23)

> <Ligand InChI Key>
AEJHKLKIRNYDPX-UHFFFAOYSA-N

> <BindingDB MonomerID>
51354

> <BindingDB Ligand Name>
3-(3-chlorobenzyl)sulfonyl-N-(4-ethoxy-3-methoxy-benzyl)propionamide::3-[(3-chlorobenzyl)sulfonyl]-N-(4-ethoxy-3-methoxybenzyl)propanamide::3-[(3-chlorophenyl)methylsulfonyl]-N-[(4-ethoxy-3-methoxy-phenyl)methyl]propanamide::3-[(3-chlorophenyl)methylsulfonyl]-N-[(4-ethoxy-3-methoxyphenyl)methyl]propanamide::MLS000685257::SMR000311495::cid_4119957

> <Target Name>
DNA repair protein RAD51 homolog 1

> <Target Source Organism According to Curator or DataSource>
Homo sapiens

> <Ki (nM)>


> <IC50 (nM)>
 53000

> <Kd (nM)>


> <EC50 (nM)>


> <kon (M-1-s-1)>


> <koff (s-1)>


> <pH>


> <Temp C>


> <Curation/DataSource>
PubChem

> <Article DOI>


> <BindingDB Entry DOI>
10.7270/Q2QN6558

> <PMID>


> <PubChem AID>
aid1437

> <Patent Number>


> <Authors>
PubChem, PC

> <Date of publication>
11/25/2008

> <Date in BindingDB>
5/31/2011

> <Institution>
PCMD

> <Link to Ligand in BindingDB>
http://www.bindingdb.org/bind/chemsearch/marvin/MolStructure.jsp?monomerid=51354

> <Link to Ligand-Target Pair in BindingDB>
http://www.bindingdb.org/jsp/dbsearch/PrimarySearch_ki.jsp?energyterm=kJ/mole&tag=pol&polymerid=4676&target=DNA+repair+protein+RAD51+homolog+1&column=ki&startPg=0&Increment=50&submit=Search

> <Link to Ligand-Target Pair in BindingDB>
http://www.bindingdb.org/jsp/dbsearch/PrimarySearch_ki.jsp?energyterm=kJ/mole&tag=r21&monomerid=51354&enzyme=DNA+repair+protein+RAD51+homolog+1&column=ki&startPg=0&Increment=50&submit=Search

> <Ligand HET ID in PDB>


> <PDB ID(s) for Ligand-Target Complex>


> <PubChem CID of Ligand>
4119957

> <PubChem SID of Ligand>
252631577

> <ChEBI ID of Ligand>


> <ChEMBL ID of Ligand>


> <DrugBank ID of Ligand>


> <IUPHAR_GRAC ID of Ligand>


> <KEGG ID of Ligand>


> <ZINC ID of Ligand>
ZINC01074957

> <Number of Protein Chains in Target (bigger than 1 implies a multichain complex)>
1

> <BindingDB Target Chain Sequence>
MAMQMQLEANADTSVEEESFGPQPISRLEQCGINANDVKKLEEAGFHTVEAVAYAPKKELINIKGISEAKADKILAEAAKLVPMGFTTATEFHQRRSEIIQITTGSKELDKLLQGGIETGSITEMFGEFRTGKTQICHTLAVTCQLPIDRGGGEGKAMYIDTEGTFRPERLLAVAERYGLSGSDVLDNVAYARAFNTDHQTQLLYQASAMMVESRYALLIVDSATALYRTDYSGRGELSARQMHLARFLRMLLRLADEFGVAVVITNQVVAQVDGAAMFAADPKKPIGGNIIAHASTTRLYLRKGRGETRICKIYDSPCLPEAEAMFAINADGVGDAKD

> <PDB ID(s) of Target Chain>
1N0W,5JZC,5NP7,5NWL,8BQ2,8BR2,8BSC

> <UniProt (SwissProt) Recommended Name of Target Chain>
DNA repair protein RAD51 homolog 1

> <UniProt (SwissProt) Entry Name of Target Chain>
RAD51_HUMAN

> <UniProt (SwissProt) Primary ID of Target Chain>
Q06609

> <UniProt (SwissProt) Secondary ID(s) of Target Chain>
B0FXP0 B2R8T6 Q6FHX9 Q6ZNA8 Q9BV60

> <UniProt (SwissProt) Alternative ID(s) of Target Chain>


> <UniProt (TrEMBL) Submitted Name of Target Chain>


> <UniProt (TrEMBL) Entry Name of Target Chain>


> <UniProt (TrEMBL) Primary ID of Target Chain>


> <UniProt (TrEMBL) Secondary ID(s) of Target Chain>


> <UniProt (TrEMBL) Alternative ID(s) of Target Chain>


$$$$
3324372
  Mrv0541 11251416042D          

 21 22  0  0  0  0            999 V2000
    3.7935    1.0313    0.0000 S   0  0  0  0  0  0  0  0  0  0  0  0
    4.5080    4.7439    0.0000 F   0  0  0  0  0  0  0  0  0  0  0  0
    2.3645    0.2063    0.0000 O   0  0  0  0  0  0  0  0  0  0  0  0
    3.0790   -1.0313    0.0000 N   0  0  0  0  0  0  0  0  0  0  0  0
    2.3645   -2.2688    0.0000 C   0  0  0  0  0  0  0  0  0  0  0  0
    2.3645   -1.4438    0.0000 C   0  0  0  0  0  0  0  0  0  0  0  0
    1.6500   -2.6813    0.0000 C   0  0  0  0  0  0  0  0  0  0  0  0
    3.0790   -2.6813    0.0000 C   0  0  0  0  0  0  0  0  0  0  0  0
    2.3645   -3.9188    0.0000 C   0  0  0  0  0  0  0  0  0  0  0  0
    4.5080    1.4438    0.0000 C   0  0  0  0  0  0  0  0  0  0  0  0
    1.6500   -3.5063    0.0000 C   0  0  0  0  0  0  0  0  0  0  0  0
    3.0790   -3.5063    0.0000 C   0  0  0  0  0  0  0  0  0  0  0  0
    4.5080    2.2688    0.0000 C   0  0  0  0  0  0  0  0  0  0  0  0
    3.7935    0.2063    0.0000 C   0  0  0  0  0  0  0  0  0  0  0  0
    3.0790   -0.2063    0.0000 C   0  0  0  0  0  0  0  0  0  0  0  0
    2.3645   -4.7439    0.0000 C   0  0  0  0  0  0  0  0  0  0  0  0
    5.2224    2.6813    0.0000 C   0  0  0  0  0  0  0  0  0  0  0  0
    3.7935    2.6813    0.0000 C   0  0  0  0  0  0  0  0  0  0  0  0
    5.2224    3.5063    0.0000 C   0  0  0  0  0  0  0  0  0  0  0  0
    3.7935    3.5063    0.0000 C   0  0  0  0  0  0  0  0  0  0  0  0
    4.5080    3.9188    0.0000 C   0  0  0  0  0  0  0  0  0  0  0  0
  1 10  1  0  0  0  0
  1 14  1  0  0  0  0
  2 21  1  0  0  0  0
  3 15  2  0  0  0  0
  4  6  1  0  0  0  0
  4 15  1  0  0  0  0
  5  6  1  0  0  0  0
  5  7  2  0  0  0  0
  5  8  1  0  0  0  0
  7 11  1  0  0  0  0
  8 12  2  0  0  0  0
  9 11  2  0  0  0  0
  9 12  1  0  0  0  0
  9 16  1  0  0  0  0
 10 13  1  0  0  0  0
 13 17  2  0  0  0  0
 13 18  1  0  0  0  0
 14 15  1  0  0  0  0
 17 19  1  0  0  0  0
 18 20  2  0  0  0  0
 19 21  2  0  0  0  0
 20 21  1  0  0  0  0
M  END
> <From>
www.bindingDB.org

> <BindingDB Reactant_set_id>
95241

> <Ligand InChI>
InChI=1S/C17H18FNOS/c1-13-2-4-14(5-3-13)10-19-17(20)12-21-11-15-6-8-16(18)9-7-15/h2-9H,10-12H2,1H3,(H,19,20)

> <Ligand InChI Key>
NBFPLGDWVCGPKN-UHFFFAOYSA-N

> <BindingDB MonomerID>
51355

> <BindingDB Ligand Name>
2-[(4-fluorobenzyl)thio]-N-(4-methylbenzyl)acetamide::2-[(4-fluorophenyl)methylsulfanyl]-N-[(4-methylphenyl)methyl]acetamide::2-[(4-fluorophenyl)methylsulfanyl]-N-[(4-methylphenyl)methyl]ethanamide::2-[(4-fluorophenyl)methylthio]-N-[(4-methylphenyl)methyl]acetamide::MLS000685249::SMR000311487::cid_3324372

> <Target Name>
DNA repair protein RAD51 homolog 1

> <Target Source Organism According to Curator or DataSource>
Homo sapiens

> <Ki (nM)>


> <IC50 (nM)>
 53000

> <Kd (nM)>


> <EC50 (nM)>


> <kon (M-1-s-1)>


> <koff (s-1)>


> <pH>


> <Temp C>


> <Curation/DataSource>
PubChem

> <Article DOI>


> <BindingDB Entry DOI>
10.7270/Q2QN6558

> <PMID>


> <PubChem AID>
aid1437

> <Patent Number>


> <Authors>
PubChem, PC

> <Date of publication>
11/25/2008

> <Date in BindingDB>
5/31/2011

> <Institution>
PCMD

> <Link to Ligand in BindingDB>
http://www.bindingdb.org/bind/chemsearch/marvin/MolStructure.jsp?monomerid=51355

> <Link to Ligand-Target Pair in BindingDB>
http://www.bindingdb.org/jsp/dbsearch/PrimarySearch_ki.jsp?energyterm=kJ/mole&tag=pol&polymerid=4676&target=DNA+repair+protein+RAD51+homolog+1&column=ki&startPg=0&Increment=50&submit=Search

> <Link to Ligand-Target Pair in BindingDB>
http://www.bindingdb.org/jsp/dbsearch/PrimarySearch_ki.jsp?energyterm=kJ/mole&tag=r21&monomerid=51355&enzyme=DNA+repair+protein+RAD51+homolog+1&column=ki&startPg=0&Increment=50&submit=Search

> <Ligand HET ID in PDB>


> <PDB ID(s) for Ligand-Target Complex>


> <PubChem CID of Ligand>
3324372

> <PubChem SID of Ligand>
252631578

> <ChEBI ID of Ligand>


> <ChEMBL ID of Ligand>


> <DrugBank ID of Ligand>


> <IUPHAR_GRAC ID of Ligand>


> <KEGG ID of Ligand>


> <ZINC ID of Ligand>
ZINC13470756

> <Number of Protein Chains in Target (bigger than 1 implies a multichain complex)>
1

> <BindingDB Target Chain Sequence>
MAMQMQLEANADTSVEEESFGPQPISRLEQCGINANDVKKLEEAGFHTVEAVAYAPKKELINIKGISEAKADKILAEAAKLVPMGFTTATEFHQRRSEIIQITTGSKELDKLLQGGIETGSITEMFGEFRTGKTQICHTLAVTCQLPIDRGGGEGKAMYIDTEGTFRPERLLAVAERYGLSGSDVLDNVAYARAFNTDHQTQLLYQASAMMVESRYALLIVDSATALYRTDYSGRGELSARQMHLARFLRMLLRLADEFGVAVVITNQVVAQVDGAAMFAADPKKPIGGNIIAHASTTRLYLRKGRGETRICKIYDSPCLPEAEAMFAINADGVGDAKD

> <PDB ID(s) of Target Chain>
1N0W,5JZC,5NP7,5NWL,8BQ2,8BR2,8BSC

> <UniProt (SwissProt) Recommended Name of Target Chain>
DNA repair protein RAD51 homolog 1

> <UniProt (SwissProt) Entry Name of Target Chain>
RAD51_HUMAN

> <UniProt (SwissProt) Primary ID of Target Chain>
Q06609

> <UniProt (SwissProt) Secondary ID(s) of Target Chain>
B0FXP0 B2R8T6 Q6FHX9 Q6ZNA8 Q9BV60

> <UniProt (SwissProt) Alternative ID(s) of Target Chain>


> <UniProt (TrEMBL) Submitted Name of Target Chain>


> <UniProt (TrEMBL) Entry Name of Target Chain>


> <UniProt (TrEMBL) Primary ID of Target Chain>


> <UniProt (TrEMBL) Secondary ID(s) of Target Chain>


> <UniProt (TrEMBL) Alternative ID(s) of Target Chain>


$$$$
4915793
  Mrv0541 11251416042D          

 30 32  0  0  1  0            999 V2000
    7.3659    1.6340    0.0000 O   0  0  0  0  0  0  0  0  0  0  0  0
    3.0790   -0.8410    0.0000 O   0  0  0  0  0  0  0  0  0  0  0  0
    3.0790    1.6340    0.0000 O   0  0  0  0  0  0  0  0  0  0  0  0
    4.5080    1.6340    0.0000 O   0  0  0  0  0  0  0  0  0  0  0  0
    1.6500   -2.4911    0.0000 O   0  5  0  0  0  0  0  0  0  0  0  0
    2.3645   -1.2535    0.0000 O   0  0  0  0  0  0  0  0  0  0  0  0
    4.5080   -0.8410    0.0000 N   0  0  0  0  0  0  0  0  0  0  0  0
    2.3645   -2.0786    0.0000 N   0  3  0  0  0  0  0  0  0  0  0  0
    7.3659    2.4590    0.0000 C   0  0  0  0  0  0  0  0  0  0  0  0
    8.0334    2.9440    0.0000 C   0  0  0  0  0  0  0  0  0  0  0  0
    6.6985    2.9440    0.0000 C   0  0  0  0  0  0  0  0  0  0  0  0
    6.9534    3.7286    0.0000 C   0  0  0  0  0  0  0  0  0  0  0  0
    7.7784    3.7286    0.0000 C   0  0  0  0  0  0  0  0  0  0  0  0
    6.6515    1.2215    0.0000 C   0  0  0  0  0  0  0  0  0  0  0  0
    4.5080   -0.0160    0.0000 C   0  0  0  0  0  0  0  0  0  0  0  0
    5.2224    0.3965    0.0000 C   0  0  0  0  0  0  0  0  0  0  0  0
    5.9370    1.6340    0.0000 C   0  0  0  0  0  0  0  0  0  0  0  0
    6.6515    0.3965    0.0000 C   0  0  0  0  0  0  0  0  0  0  0  0
    5.2224    1.2215    0.0000 C   0  0  0  0  0  0  0  0  0  0  0  0
    5.9370   -0.0160    0.0000 C   0  0  0  0  0  0  0  0  0  0  0  0
    3.7935    0.3965    0.0000 C   0  0  0  0  0  0  0  0  0  0  0  0
    3.7935   -1.2535    0.0000 C   0  0  0  0  0  0  0  0  0  0  0  0
    3.7935   -2.0786    0.0000 C   0  0  0  0  0  0  0  0  0  0  0  0
    3.7935    1.2215    0.0000 C   0  0  0  0  0  0  0  0  0  0  0  0
    3.0790   -2.4911    0.0000 C   0  0  0  0  0  0  0  0  0  0  0  0
    3.0790   -3.3161    0.0000 C   0  0  0  0  0  0  0  0  0  0  0  0
    4.5080   -2.4911    0.0000 C   0  0  0  0  0  0  0  0  0  0  0  0
    3.7935   -3.7286    0.0000 C   0  0  0  0  0  0  0  0  0  0  0  0
    4.5080   -3.3161    0.0000 C   0  0  0  0  0  0  0  0  0  0  0  0
    2.3645   -3.7286    0.0000 C   0  0  0  0  0  0  0  0  0  0  0  0
  1  9  1  0  0  0  0
  1 14  1  0  0  0  0
  2 22  2  0  0  0  0
  3 24  1  0  0  0  0
  4 24  2  0  0  0  0
  5  8  1  0  0  0  0
  6  8  2  0  0  0  0
  7 15  1  0  0  0  0
  7 22  1  0  0  0  0
  8 25  1  0  0  0  0
  9 10  1  0  0  0  0
  9 11  1  0  0  0  0
 10 13  1  0  0  0  0
 11 12  1  0  0  0  0
 12 13  1  0  0  0  0
 14 17  2  0  0  0  0
 14 18  1  0  0  0  0
 15 16  1  0  0  0  0
 15 21  1  0  0  0  0
 16 19  2  0  0  0  0
 16 20  1  0  0  0  0
 17 19  1  0  0  0  0
 18 20  2  0  0  0  0
 21 24  1  0  0  0  0
 22 23  1  0  0  0  0
 23 25  2  0  0  0  0
 23 27  1  0  0  0  0
 25 26  1  0  0  0  0
 26 28  2  0  0  0  0
 26 30  1  0  0  0  0
 27 29  2  0  0  0  0
 28 29  1  0  0  0  0
M  CHG  2   5  -1   8   1
M  END
> <From>
www.bindingDB.org

> <BindingDB Reactant_set_id>
95242

> <Ligand InChI>
InChI=1S/C22H24N2O6/c1-14-5-4-8-18(21(14)24(28)29)22(27)23-19(13-20(25)26)15-9-11-17(12-10-15)30-16-6-2-3-7-16/h4-5,8-12,16,19H,2-3,6-7,13H2,1H3,(H,23,27)(H,25,26)

> <Ligand InChI Key>
KSPNMOPONVIHLY-UHFFFAOYSA-N

> <BindingDB MonomerID>
51356

> <BindingDB Ligand Name>
3-(4-cyclopentyloxyphenyl)-3-[(3-methyl-2-nitro-phenyl)carbonylamino]propanoic acid::3-(4-cyclopentyloxyphenyl)-3-[(3-methyl-2-nitrobenzoyl)amino]propanoic acid::3-(4-cyclopentyloxyphenyl)-3-[[(3-methyl-2-nitrophenyl)-oxomethyl]amino]propanoic acid::3-[4-(cyclopentoxy)phenyl]-3-[(3-methyl-2-nitro-benzoyl)amino]propionic acid::3-[4-(cyclopentyloxy)phenyl]-3-[(3-methyl-2-nitrobenzoyl)amino]propanoic acid::MLS000675012::SMR000313615::cid_4915793

> <Target Name>
DNA repair protein RAD51 homolog 1

> <Target Source Organism According to Curator or DataSource>
Homo sapiens

> <Ki (nM)>


> <IC50 (nM)>
 53000

> <Kd (nM)>


> <EC50 (nM)>


> <kon (M-1-s-1)>


> <koff (s-1)>


> <pH>


> <Temp C>


> <Curation/DataSource>
PubChem

> <Article DOI>


> <BindingDB Entry DOI>
10.7270/Q2QN6558

> <PMID>


> <PubChem AID>
aid1437

> <Patent Number>


> <Authors>
PubChem, PC

> <Date of publication>
11/25/2008

> <Date in BindingDB>
5/31/2011

> <Institution>
PCMD

> <Link to Ligand in BindingDB>
http://www.bindingdb.org/bind/chemsearch/marvin/MolStructure.jsp?monomerid=51356

> <Link to Ligand-Target Pair in BindingDB>
http://www.bindingdb.org/jsp/dbsearch/PrimarySearch_ki.jsp?energyterm=kJ/mole&tag=pol&polymerid=4676&target=DNA+repair+protein+RAD51+homolog+1&column=ki&startPg=0&Increment=50&submit=Search

> <Link to Ligand-Target Pair in BindingDB>
http://www.bindingdb.org/jsp/dbsearch/PrimarySearch_ki.jsp?energyterm=kJ/mole&tag=r21&monomerid=51356&enzyme=DNA+repair+protein+RAD51+homolog+1&column=ki&startPg=0&Increment=50&submit=Search

> <Ligand HET ID in PDB>


> <PDB ID(s) for Ligand-Target Complex>


> <PubChem CID of Ligand>
4915793

> <PubChem SID of Ligand>
252631579

> <ChEBI ID of Ligand>


> <ChEMBL ID of Ligand>


> <DrugBank ID of Ligand>


> <IUPHAR_GRAC ID of Ligand>


> <KEGG ID of Ligand>


> <ZINC ID of Ligand>
ZINC06153489

> <Number of Protein Chains in Target (bigger than 1 implies a multichain complex)>
1

> <BindingDB Target Chain Sequence>
MAMQMQLEANADTSVEEESFGPQPISRLEQCGINANDVKKLEEAGFHTVEAVAYAPKKELINIKGISEAKADKILAEAAKLVPMGFTTATEFHQRRSEIIQITTGSKELDKLLQGGIETGSITEMFGEFRTGKTQICHTLAVTCQLPIDRGGGEGKAMYIDTEGTFRPERLLAVAERYGLSGSDVLDNVAYARAFNTDHQTQLLYQASAMMVESRYALLIVDSATALYRTDYSGRGELSARQMHLARFLRMLLRLADEFGVAVVITNQVVAQVDGAAMFAADPKKPIGGNIIAHASTTRLYLRKGRGETRICKIYDSPCLPEAEAMFAINADGVGDAKD

> <PDB ID(s) of Target Chain>
1N0W,5JZC,5NP7,5NWL,8BQ2,8BR2,8BSC

> <UniProt (SwissProt) Recommended Name of Target Chain>
DNA repair protein RAD51 homolog 1

> <UniProt (SwissProt) Entry Name of Target Chain>
RAD51_HUMAN

> <UniProt (SwissProt) Primary ID of Target Chain>
Q06609

> <UniProt (SwissProt) Secondary ID(s) of Target Chain>
B0FXP0 B2R8T6 Q6FHX9 Q6ZNA8 Q9BV60

> <UniProt (SwissProt) Alternative ID(s) of Target Chain>


> <UniProt (TrEMBL) Submitted Name of Target Chain>


> <UniProt (TrEMBL) Entry Name of Target Chain>


> <UniProt (TrEMBL) Primary ID of Target Chain>


> <UniProt (TrEMBL) Secondary ID(s) of Target Chain>


> <UniProt (TrEMBL) Alternative ID(s) of Target Chain>


$$$$
682055
  Mrv0541 11251416042D          

 14 14  0  0  0  0            999 V2000
    3.0790    2.4256    0.0000 S   0  0  0  0  0  0  0  0  0  0  0  0
    2.3645    1.1880    0.0000 O   0  0  0  0  0  0  0  0  0  0  0  0
    3.7935    1.1880    0.0000 N   0  0  0  0  0  0  0  0  0  0  0  0
    4.5080    2.4256    0.0000 N   0  0  0  0  0  0  0  0  0  0  0  0
    2.3645   -1.2870    0.0000 C   0  0  0  0  0  0  0  0  0  0  0  0
    1.6500   -1.6995    0.0000 C   0  0  0  0  0  0  0  0  0  0  0  0
    3.0790   -1.6995    0.0000 C   0  0  0  0  0  0  0  0  0  0  0  0
    2.3645   -0.4620    0.0000 C   0  0  0  0  0  0  0  0  0  0  0  0
    1.6500   -2.5246    0.0000 C   0  0  0  0  0  0  0  0  0  0  0  0
    3.0790   -2.5246    0.0000 C   0  0  0  0  0  0  0  0  0  0  0  0
    2.3645   -2.9371    0.0000 C   0  0  0  0  0  0  0  0  0  0  0  0
    3.0790   -0.0495    0.0000 C   0  0  0  0  0  0  0  0  0  0  0  0
    3.0790    0.7755    0.0000 C   0  0  0  0  0  0  0  0  0  0  0  0
    3.7935    2.0130    0.0000 C   0  0  0  0  0  0  0  0  0  0  0  0
  1 14  2  0  0  0  0
  2 13  2  0  0  0  0
  3 13  1  0  0  0  0
  3 14  1  0  0  0  0
  4 14  1  0  0  0  0
  5  6  2  0  0  0  0
  5  7  1  0  0  0  0
  5  8  1  0  0  0  0
  6  9  1  0  0  0  0
  7 10  2  0  0  0  0
  8 12  2  0  0  0  0
  9 11  2  0  0  0  0
 10 11  1  0  0  0  0
 12 13  1  0  0  0  0
M  END
> <From>
www.bindingDB.org

> <BindingDB Reactant_set_id>
95243

> <Ligand InChI>
InChI=1S/C10H10N2OS/c11-10(14)12-9(13)7-6-8-4-2-1-3-5-8/h1-7H,(H3,11,12,13,14)/b7-6+

> <Ligand InChI Key>
XWFDAVCQMMQZAQ-VOTSOKGWSA-N

> <BindingDB MonomerID>
51357

> <BindingDB Ligand Name>
(2E)-N-(aminocarbonothioyl)-3-phenylacrylamide::(E)-3-phenyl-N-thiocarbamoyl-acrylamide::(E)-N-carbamothioyl-3-phenyl-2-propenamide::(E)-N-carbamothioyl-3-phenyl-prop-2-enamide::(E)-N-carbamothioyl-3-phenylprop-2-enamide::MLS000720020::SMR000304549::cid_682055

> <Target Name>
DNA repair protein RAD51 homolog 1

> <Target Source Organism According to Curator or DataSource>
Homo sapiens

> <Ki (nM)>


> <IC50 (nM)>
 53000

> <Kd (nM)>


> <EC50 (nM)>


> <kon (M-1-s-1)>


> <koff (s-1)>


> <pH>


> <Temp C>


> <Curation/DataSource>
PubChem

> <Article DOI>


> <BindingDB Entry DOI>
10.7270/Q2QN6558

> <PMID>


> <PubChem AID>
aid1437

> <Patent Number>


> <Authors>
PubChem, PC

> <Date of publication>
11/25/2008

> <Date in BindingDB>
5/31/2011

> <Institution>
PCMD

> <Link to Ligand in BindingDB>
http://www.bindingdb.org/bind/chemsearch/marvin/MolStructure.jsp?monomerid=51357

> <Link to Ligand-Target Pair in BindingDB>
http://www.bindingdb.org/jsp/dbsearch/PrimarySearch_ki.jsp?energyterm=kJ/mole&tag=pol&polymerid=4676&target=DNA+repair+protein+RAD51+homolog+1&column=ki&startPg=0&Increment=50&submit=Search

> <Link to Ligand-Target Pair in BindingDB>
http://www.bindingdb.org/jsp/dbsearch/PrimarySearch_ki.jsp?energyterm=kJ/mole&tag=r21&monomerid=51357&enzyme=DNA+repair+protein+RAD51+homolog+1&column=ki&startPg=0&Increment=50&submit=Search

> <Ligand HET ID in PDB>


> <PDB ID(s) for Ligand-Target Complex>


> <PubChem CID of Ligand>
682055

> <PubChem SID of Ligand>
252631580

> <ChEBI ID of Ligand>


> <ChEMBL ID of Ligand>


> <DrugBank ID of Ligand>


> <IUPHAR_GRAC ID of Ligand>


> <KEGG ID of Ligand>


> <ZINC ID of Ligand>
ZINC03333711

> <Number of Protein Chains in Target (bigger than 1 implies a multichain complex)>
1

> <BindingDB Target Chain Sequence>
MAMQMQLEANADTSVEEESFGPQPISRLEQCGINANDVKKLEEAGFHTVEAVAYAPKKELINIKGISEAKADKILAEAAKLVPMGFTTATEFHQRRSEIIQITTGSKELDKLLQGGIETGSITEMFGEFRTGKTQICHTLAVTCQLPIDRGGGEGKAMYIDTEGTFRPERLLAVAERYGLSGSDVLDNVAYARAFNTDHQTQLLYQASAMMVESRYALLIVDSATALYRTDYSGRGELSARQMHLARFLRMLLRLADEFGVAVVITNQVVAQVDGAAMFAADPKKPIGGNIIAHASTTRLYLRKGRGETRICKIYDSPCLPEAEAMFAINADGVGDAKD

> <PDB ID(s) of Target Chain>
1N0W,5JZC,5NP7,5NWL,8BQ2,8BR2,8BSC

> <UniProt (SwissProt) Recommended Name of Target Chain>
DNA repair protein RAD51 homolog 1

> <UniProt (SwissProt) Entry Name of Target Chain>
RAD51_HUMAN

> <UniProt (SwissProt) Primary ID of Target Chain>
Q06609

> <UniProt (SwissProt) Secondary ID(s) of Target Chain>
B0FXP0 B2R8T6 Q6FHX9 Q6ZNA8 Q9BV60

> <UniProt (SwissProt) Alternative ID(s) of Target Chain>


> <UniProt (TrEMBL) Submitted Name of Target Chain>


> <UniProt (TrEMBL) Entry Name of Target Chain>


> <UniProt (TrEMBL) Primary ID of Target Chain>


> <UniProt (TrEMBL) Secondary ID(s) of Target Chain>


> <UniProt (TrEMBL) Alternative ID(s) of Target Chain>


$$$$
16194458
  Mrv0541 11251416042D          

 36 40  0  0  1  0            999 V2000
    7.3659    1.0313    0.0000 S   0  0  0  0  0  0  0  0  0  0  0  0
    6.6515   -0.2063    0.0000 O   0  0  0  0  0  0  0  0  0  0  0  0
    6.9534    0.3168    0.0000 O   0  0  0  0  0  0  0  0  0  0  0  0
    7.7784    1.7457    0.0000 O   0  0  0  0  0  0  0  0  0  0  0  0
   11.7073   -0.6387    0.0000 O   0  0  0  0  0  0  0  0  0  0  0  0
    5.2224   -0.2063    0.0000 N   0  0  0  0  0  0  0  0  0  0  0  0
    3.7935   -1.0313    0.0000 N   0  0  0  0  0  0  0  0  0  0  0  0
    6.6515    1.4438    0.0000 N   0  0  0  0  0  0  0  0  0  0  0  0
   10.2469   -0.6474    0.0000 N   0  0  0  0  0  0  0  0  0  0  0  0
    3.0790   -2.2688    0.0000 N   0  0  0  0  0  0  0  0  0  0  0  0
    4.5080    0.2063    0.0000 C   0  0  0  0  0  0  0  0  0  0  0  0
    5.2224   -1.0313    0.0000 C   0  0  0  0  0  0  0  0  0  0  0  0
    3.7935   -0.2063    0.0000 C   0  0  0  0  0  0  0  0  0  0  0  0
    4.5080   -1.4438    0.0000 C   0  0  0  0  0  0  0  0  0  0  0  0
    5.9370    1.0313    0.0000 C   0  0  0  0  0  0  0  0  0  0  0  0
    5.9370    0.2063    0.0000 C   0  0  0  0  0  0  0  0  0  0  0  0
    3.0790   -1.4438    0.0000 C   0  0  0  0  0  0  0  0  0  0  0  0
    5.2224    1.4438    0.0000 C   0  0  0  0  0  0  0  0  0  0  0  0
    8.0804    0.6188    0.0000 C   0  0  0  0  0  0  0  0  0  0  0  0
    9.5094    0.6188    0.0000 C   0  0  0  0  0  0  0  0  0  0  0  0
   10.2469    1.0599    0.0000 C   0  0  0  0  0  0  0  0  0  0  0  0
    8.7949    1.0313    0.0000 C   0  0  0  0  0  0  0  0  0  0  0  0
    9.5094   -0.2063    0.0000 C   0  0  0  0  0  0  0  0  0  0  0  0
   10.9944    0.6359    0.0000 C   0  0  0  0  0  0  0  0  0  0  0  0
    8.0804   -0.2063    0.0000 C   0  0  0  0  0  0  0  0  0  0  0  0
    2.3645   -1.0313    0.0000 C   0  0  0  0  0  0  0  0  0  0  0  0
    5.2224    2.2688    0.0000 C   0  0  0  0  0  0  0  0  0  0  0  0
    4.5080    1.0313    0.0000 C   0  0  0  0  0  0  0  0  0  0  0  0
    8.7949   -0.6188    0.0000 C   0  0  0  0  0  0  0  0  0  0  0  0
   10.9944   -0.2234    0.0000 C   0  0  0  0  0  0  0  0  0  0  0  0
    4.5080    2.6813    0.0000 C   0  0  0  0  0  0  0  0  0  0  0  0
    3.7935    1.4438    0.0000 C   0  0  0  0  0  0  0  0  0  0  0  0
    1.6500   -1.4438    0.0000 C   0  0  0  0  0  0  0  0  0  0  0  0
    2.3645   -2.6813    0.0000 C   0  0  0  0  0  0  0  0  0  0  0  0
    3.7935    2.2688    0.0000 C   0  0  0  0  0  0  0  0  0  0  0  0
    1.6500   -2.2688    0.0000 C   0  0  0  0  0  0  0  0  0  0  0  0
  1  3  2  0  0  0  0
  1  4  2  0  0  0  0
  1  8  1  0  0  0  0
  1 19  1  0  0  0  0
  2 16  2  0  0  0  0
  5 30  2  0  0  0  0
  6 11  1  0  0  0  0
  6 12  1  0  0  0  0
  6 16  1  0  0  0  0
  7 13  1  0  0  0  0
  7 14  1  0  0  0  0
  7 17  1  0  0  0  0
  8 15  1  0  0  0  0
  9 23  1  0  0  0  0
  9 30  1  0  0  0  0
 10 17  2  0  0  0  0
 10 34  1  0  0  0  0
 11 13  1  0  0  0  0
 12 14  1  0  0  0  0
 15 16  1  0  0  0  0
 15 18  1  0  0  0  0
 17 26  1  0  0  0  0
 18 27  2  0  0  0  0
 18 28  1  0  0  0  0
 19 22  2  0  0  0  0
 19 25  1  0  0  0  0
 20 21  1  0  0  0  0
 20 22  1  0  0  0  0
 20 23  2  0  0  0  0
 21 24  1  0  0  0  0
 23 29  1  0  0  0  0
 24 30  1  0  0  0  0
 25 29  2  0  0  0  0
 26 33  2  0  0  0  0
 27 31  1  0  0  0  0
 28 32  2  0  0  0  0
 31 35  2  0  0  0  0
 32 35  1  0  0  0  0
 33 36  1  0  0  0  0
 34 36  2  0  0  0  0
M  END
> <From>
www.bindingDB.org

> <BindingDB Reactant_set_id>
95244

> <Ligand InChI>
InChI=1S/C26H27N5O4S/c32-24-12-9-20-18-21(10-11-22(20)28-24)36(34,35)29-25(19-6-2-1-3-7-19)26(33)31-16-14-30(15-17-31)23-8-4-5-13-27-23/h1-8,10-11,13,18,25,29H,9,12,14-17H2,(H,28,32)

> <Ligand InChI Key>
MZDXDTBUESWFPP-UHFFFAOYSA-N

> <BindingDB MonomerID>
51358

> <BindingDB Ligand Name>
2-keto-N-[2-keto-1-phenyl-2-[4-(2-pyridyl)piperazino]ethyl]-3,4-dihydro-1H-quinoline-6-sulfonamide::2-oxidanylidene-N-[2-oxidanylidene-1-phenyl-2-(4-pyridin-2-ylpiperazin-1-yl)ethyl]-3,4-dihydro-1H-quinoline-6-sulfonamide::2-oxo-N-[2-oxo-1-phenyl-2-(4-pyridin-2-ylpiperazin-1-yl)ethyl]-1,2,3,4-tetrahydroquinoline-6-sulfonamide::2-oxo-N-[2-oxo-1-phenyl-2-(4-pyridin-2-ylpiperazin-1-yl)ethyl]-3,4-dihydro-1H-quinoline-6-sulfonamide::2-oxo-N-[2-oxo-1-phenyl-2-[4-(2-pyridinyl)-1-piperazinyl]ethyl]-3,4-dihydro-1H-quinoline-6-sulfonamide::MLS000674749::SMR000314190::cid_16194458

> <Target Name>
DNA repair protein RAD51 homolog 1

> <Target Source Organism According to Curator or DataSource>
Homo sapiens

> <Ki (nM)>


> <IC50 (nM)>
 53000

> <Kd (nM)>


> <EC50 (nM)>


> <kon (M-1-s-1)>


> <koff (s-1)>


> <pH>


> <Temp C>


> <Curation/DataSource>
PubChem

> <Article DOI>


> <BindingDB Entry DOI>
10.7270/Q2QN6558

> <PMID>


> <PubChem AID>
aid1437

> <Patent Number>


> <Authors>
PubChem, PC

> <Date of publication>
11/25/2008

> <Date in BindingDB>
5/31/2011

> <Institution>
PCMD

> <Link to Ligand in BindingDB>
http://www.bindingdb.org/bind/chemsearch/marvin/MolStructure.jsp?monomerid=51358

> <Link to Ligand-Target Pair in BindingDB>
http://www.bindingdb.org/jsp/dbsearch/PrimarySearch_ki.jsp?energyterm=kJ/mole&tag=pol&polymerid=4676&target=DNA+repair+protein+RAD51+homolog+1&column=ki&startPg=0&Increment=50&submit=Search

> <Link to Ligand-Target Pair in BindingDB>
http://www.bindingdb.org/jsp/dbsearch/PrimarySearch_ki.jsp?energyterm=kJ/mole&tag=r21&monomerid=51358&enzyme=DNA+repair+protein+RAD51+homolog+1&column=ki&startPg=0&Increment=50&submit=Search

> <Ligand HET ID in PDB>


> <PDB ID(s) for Ligand-Target Complex>


> <PubChem CID of Ligand>
16194458

> <PubChem SID of Ligand>
252631581

> <ChEBI ID of Ligand>


> <ChEMBL ID of Ligand>


> <DrugBank ID of Ligand>


> <IUPHAR_GRAC ID of Ligand>


> <KEGG ID of Ligand>


> <ZINC ID of Ligand>
ZINC03338696

> <Number of Protein Chains in Target (bigger than 1 implies a multichain complex)>
1

> <BindingDB Target Chain Sequence>
MAMQMQLEANADTSVEEESFGPQPISRLEQCGINANDVKKLEEAGFHTVEAVAYAPKKELINIKGISEAKADKILAEAAKLVPMGFTTATEFHQRRSEIIQITTGSKELDKLLQGGIETGSITEMFGEFRTGKTQICHTLAVTCQLPIDRGGGEGKAMYIDTEGTFRPERLLAVAERYGLSGSDVLDNVAYARAFNTDHQTQLLYQASAMMVESRYALLIVDSATALYRTDYSGRGELSARQMHLARFLRMLLRLADEFGVAVVITNQVVAQVDGAAMFAADPKKPIGGNIIAHASTTRLYLRKGRGETRICKIYDSPCLPEAEAMFAINADGVGDAKD

> <PDB ID(s) of Target Chain>
1N0W,5JZC,5NP7,5NWL,8BQ2,8BR2,8BSC

> <UniProt (SwissProt) Recommended Name of Target Chain>
DNA repair protein RAD51 homolog 1

> <UniProt (SwissProt) Entry Name of Target Chain>
RAD51_HUMAN

> <UniProt (SwissProt) Primary ID of Target Chain>
Q06609

> <UniProt (SwissProt) Secondary ID(s) of Target Chain>
B0FXP0 B2R8T6 Q6FHX9 Q6ZNA8 Q9BV60

> <UniProt (SwissProt) Alternative ID(s) of Target Chain>


> <UniProt (TrEMBL) Submitted Name of Target Chain>


> <UniProt (TrEMBL) Entry Name of Target Chain>


> <UniProt (TrEMBL) Primary ID of Target Chain>


> <UniProt (TrEMBL) Secondary ID(s) of Target Chain>


> <UniProt (TrEMBL) Alternative ID(s) of Target Chain>


$$$$
1485250
  Mrv0541 11251416042D          

 29 31  0  0  0  0            999 V2000
    1.6500    2.4750    0.0000 Cl  0  0  0  0  0  0  0  0  0  0  0  0
    3.0789    4.9500    0.0000 Cl  0  0  0  0  0  0  0  0  0  0  0  0
    3.0789    0.0000    0.0000 O   0  0  0  0  0  0  0  0  0  0  0  0
    4.5079    2.4750    0.0000 O   0  0  0  0  0  0  0  0  0  0  0  0
    3.7934   -3.7125    0.0000 O   0  0  0  0  0  0  0  0  0  0  0  0
    5.2223   -4.5375    0.0000 O   0  0  0  0  0  0  0  0  0  0  0  0
    4.5079    0.0000    0.0000 N   0  0  0  0  0  0  0  0  0  0  0  0
    4.5079   -0.8250    0.0000 C   0  0  0  0  0  0  0  0  0  0  0  0
    5.2223   -1.2375    0.0000 C   0  0  0  0  0  0  0  0  0  0  0  0
    3.7934    1.2375    0.0000 C   0  0  0  0  0  0  0  0  0  0  0  0
    3.7934    0.4125    0.0000 C   0  0  0  0  0  0  0  0  0  0  0  0
    5.2223   -2.0625    0.0000 C   0  0  0  0  0  0  0  0  0  0  0  0
    3.0789    1.6500    0.0000 C   0  0  0  0  0  0  0  0  0  0  0  0
    5.2223    0.4125    0.0000 C   0  0  0  0  0  0  0  0  0  0  0  0
    4.5079    1.6500    0.0000 C   0  0  0  0  0  0  0  0  0  0  0  0
    3.0789    2.4750    0.0000 C   0  0  0  0  0  0  0  0  0  0  0  0
    5.2223    1.2375    0.0000 C   0  0  0  0  0  0  0  0  0  0  0  0
    4.5079   -2.4750    0.0000 C   0  0  0  0  0  0  0  0  0  0  0  0
    5.9369   -2.4750    0.0000 C   0  0  0  0  0  0  0  0  0  0  0  0
    4.5079   -3.3000    0.0000 C   0  0  0  0  0  0  0  0  0  0  0  0
    5.9369   -3.3000    0.0000 C   0  0  0  0  0  0  0  0  0  0  0  0
    5.2223   -3.7125    0.0000 C   0  0  0  0  0  0  0  0  0  0  0  0
    2.3644    2.8875    0.0000 C   0  0  0  0  0  0  0  0  0  0  0  0
    3.7934    2.8875    0.0000 C   0  0  0  0  0  0  0  0  0  0  0  0
    2.3644    3.7125    0.0000 C   0  0  0  0  0  0  0  0  0  0  0  0
    3.7934    3.7125    0.0000 C   0  0  0  0  0  0  0  0  0  0  0  0
    3.0789    4.1250    0.0000 C   0  0  0  0  0  0  0  0  0  0  0  0
    3.7934   -4.5375    0.0000 C   0  0  0  0  0  0  0  0  0  0  0  0
    5.9369   -4.9500    0.0000 C   0  0  0  0  0  0  0  0  0  0  0  0
  1 23  1  0  0  0  0
  2 27  1  0  0  0  0
  3 11  2  0  0  0  0
  4 15  1  0  0  0  0
  5 20  1  0  0  0  0
  5 28  1  0  0  0  0
  6 22  1  0  0  0  0
  6 29  1  0  0  0  0
  7  8  1  0  0  0  0
  7 11  1  0  0  0  0
  7 14  1  0  0  0  0
  8  9  1  0  0  0  0
  9 12  1  0  0  0  0
 10 11  1  0  0  0  0
 10 13  1  0  0  0  0
 10 15  2  0  0  0  0
 12 18  2  0  0  0  0
 12 19  1  0  0  0  0
 13 16  1  0  0  0  0
 14 17  2  0  0  0  0
 15 17  1  0  0  0  0
 16 23  2  0  0  0  0
 16 24  1  0  0  0  0
 18 20  1  0  0  0  0
 19 21  2  0  0  0  0
 20 22  2  0  0  0  0
 21 22  1  0  0  0  0
 23 25  1  0  0  0  0
 24 26  2  0  0  0  0
 25 27  2  0  0  0  0
 26 27  1  0  0  0  0
M  END
> <From>
www.bindingDB.org

> <BindingDB Reactant_set_id>
95245

> <Ligand InChI>
InChI=1S/C22H21Cl2NO4/c1-28-20-6-3-14(11-21(20)29-2)7-9-25-10-8-19(26)17(22(25)27)12-15-4-5-16(23)13-18(15)24/h3-6,8,10-11,13,26H,7,9,12H2,1-2H3

> <Ligand InChI Key>
GIEKIADPXASALH-UHFFFAOYSA-N

> <BindingDB MonomerID>
51359

> <BindingDB Ligand Name>
3-(2,4-dichlorobenzyl)-1-(3,4-dimethoxyphenethyl)-4-hydroxy-2(1H)-pyridinone::3-(2,4-dichlorobenzyl)-1-homoveratryl-2-hydroxy-4-pyridone::3-[(2,4-dichlorophenyl)methyl]-1-[2-(3,4-dimethoxyphenyl)ethyl]-2-hydroxy-4-pyridinone::3-[(2,4-dichlorophenyl)methyl]-1-[2-(3,4-dimethoxyphenyl)ethyl]-2-hydroxypyridin-4-one::3-[(2,4-dichlorophenyl)methyl]-1-[2-(3,4-dimethoxyphenyl)ethyl]-2-oxidanyl-pyridin-4-one::MLS000721551::SMR000335859::cid_1485250

> <Target Name>
DNA repair protein RAD51 homolog 1

> <Target Source Organism According to Curator or DataSource>
Homo sapiens

> <Ki (nM)>


> <IC50 (nM)>
 53000

> <Kd (nM)>


> <EC50 (nM)>


> <kon (M-1-s-1)>


> <koff (s-1)>


> <pH>


> <Temp C>


> <Curation/DataSource>
PubChem

> <Article DOI>


> <BindingDB Entry DOI>
10.7270/Q2QN6558

> <PMID>


> <PubChem AID>
aid1437

> <Patent Number>


> <Authors>
PubChem, PC

> <Date of publication>
11/25/2008

> <Date in BindingDB>
5/31/2011

> <Institution>
PCMD

> <Link to Ligand in BindingDB>
http://www.bindingdb.org/bind/chemsearch/marvin/MolStructure.jsp?monomerid=51359

> <Link to Ligand-Target Pair in BindingDB>
http://www.bindingdb.org/jsp/dbsearch/PrimarySearch_ki.jsp?energyterm=kJ/mole&tag=pol&polymerid=4676&target=DNA+repair+protein+RAD51+homolog+1&column=ki&startPg=0&Increment=50&submit=Search

> <Link to Ligand-Target Pair in BindingDB>
http://www.bindingdb.org/jsp/dbsearch/PrimarySearch_ki.jsp?energyterm=kJ/mole&tag=r21&monomerid=51359&enzyme=DNA+repair+protein+RAD51+homolog+1&column=ki&startPg=0&Increment=50&submit=Search

> <Ligand HET ID in PDB>


> <PDB ID(s) for Ligand-Target Complex>


> <PubChem CID of Ligand>
54693277

> <PubChem SID of Ligand>
252631582

> <ChEBI ID of Ligand>


> <ChEMBL ID of Ligand>


> <DrugBank ID of Ligand>


> <IUPHAR_GRAC ID of Ligand>


> <KEGG ID of Ligand>


> <ZINC ID of Ligand>
ZINC36108069

> <Number of Protein Chains in Target (bigger than 1 implies a multichain complex)>
1

> <BindingDB Target Chain Sequence>
MAMQMQLEANADTSVEEESFGPQPISRLEQCGINANDVKKLEEAGFHTVEAVAYAPKKELINIKGISEAKADKILAEAAKLVPMGFTTATEFHQRRSEIIQITTGSKELDKLLQGGIETGSITEMFGEFRTGKTQICHTLAVTCQLPIDRGGGEGKAMYIDTEGTFRPERLLAVAERYGLSGSDVLDNVAYARAFNTDHQTQLLYQASAMMVESRYALLIVDSATALYRTDYSGRGELSARQMHLARFLRMLLRLADEFGVAVVITNQVVAQVDGAAMFAADPKKPIGGNIIAHASTTRLYLRKGRGETRICKIYDSPCLPEAEAMFAINADGVGDAKD

> <PDB ID(s) of Target Chain>
1N0W,5JZC,5NP7,5NWL,8BQ2,8BR2,8BSC

> <UniProt (SwissProt) Recommended Name of Target Chain>
DNA repair protein RAD51 homolog 1

> <UniProt (SwissProt) Entry Name of Target Chain>
RAD51_HUMAN

> <UniProt (SwissProt) Primary ID of Target Chain>
Q06609

> <UniProt (SwissProt) Secondary ID(s) of Target Chain>
B0FXP0 B2R8T6 Q6FHX9 Q6ZNA8 Q9BV60

> <UniProt (SwissProt) Alternative ID(s) of Target Chain>


> <UniProt (TrEMBL) Submitted Name of Target Chain>


> <UniProt (TrEMBL) Entry Name of Target Chain>


> <UniProt (TrEMBL) Primary ID of Target Chain>


> <UniProt (TrEMBL) Secondary ID(s) of Target Chain>


> <UniProt (TrEMBL) Alternative ID(s) of Target Chain>


$$$$
4421157
  Mrv0541 11251416042D          

 22 23  0  0  0  0            999 V2000
    5.9601    2.3553    0.0000 Cl  0  0  0  0  0  0  0  0  0  0  0  0
    5.2224    0.8878    0.0000 O   0  0  0  0  0  0  0  0  0  0  0  0
    2.3645    0.0628    0.0000 O   0  0  0  0  0  0  0  0  0  0  0  0
    4.9205    3.3949    0.0000 N   0  0  0  0  0  0  0  0  0  0  0  0
    3.7935    0.8878    0.0000 N   0  0  0  0  0  0  0  0  0  0  0  0
    3.0790   -1.1747    0.0000 N   0  0  0  0  0  0  0  0  0  0  0  0
    4.0955    3.3949    0.0000 N   0  0  0  0  0  0  0  0  0  0  0  0
    4.5080    2.1253    0.0000 C   0  0  0  0  0  0  0  0  0  0  0  0
    3.8405    2.6103    0.0000 C   0  0  0  0  0  0  0  0  0  0  0  0
    5.1754    2.6103    0.0000 C   0  0  0  0  0  0  0  0  0  0  0  0
    2.3645   -1.5873    0.0000 C   0  0  0  0  0  0  0  0  0  0  0  0
    3.7935    0.0628    0.0000 C   0  0  0  0  0  0  0  0  0  0  0  0
    4.5080    1.3003    0.0000 C   0  0  0  0  0  0  0  0  0  0  0  0
    2.3645   -2.4123    0.0000 C   0  0  0  0  0  0  0  0  0  0  0  0
    3.0790   -0.3497    0.0000 C   0  0  0  0  0  0  0  0  0  0  0  0
    3.0559    2.3553    0.0000 C   0  0  0  0  0  0  0  0  0  0  0  0
    5.4054    4.0623    0.0000 C   0  0  0  0  0  0  0  0  0  0  0  0
    1.6500   -2.8248    0.0000 C   0  0  0  0  0  0  0  0  0  0  0  0
    3.0790   -2.8248    0.0000 C   0  0  0  0  0  0  0  0  0  0  0  0
    1.6500   -3.6498    0.0000 C   0  0  0  0  0  0  0  0  0  0  0  0
    3.0790   -3.6498    0.0000 C   0  0  0  0  0  0  0  0  0  0  0  0
    2.3645   -4.0623    0.0000 C   0  0  0  0  0  0  0  0  0  0  0  0
  1 10  1  0  0  0  0
  2 13  2  0  0  0  0
  3 15  2  0  0  0  0
  4  7  1  0  0  0  0
  4 10  1  0  0  0  0
  4 17  1  0  0  0  0
  5 12  1  0  0  0  0
  5 13  1  0  0  0  0
  6 11  1  0  0  0  0
  6 15  1  0  0  0  0
  7  9  2  0  0  0  0
  8  9  1  0  0  0  0
  8 10  2  0  0  0  0
  8 13  1  0  0  0  0
  9 16  1  0  0  0  0
 11 14  1  0  0  0  0
 12 15  1  0  0  0  0
 14 18  2  0  0  0  0
 14 19  1  0  0  0  0
 18 20  1  0  0  0  0
 19 21  2  0  0  0  0
 20 22  2  0  0  0  0
 21 22  1  0  0  0  0
M  END
> <From>
www.bindingDB.org

> <BindingDB Reactant_set_id>
95246

> <Ligand InChI>
InChI=1S/C15H17ClN4O2/c1-10-13(14(16)20(2)19-10)15(22)18-9-12(21)17-8-11-6-4-3-5-7-11/h3-7H,8-9H2,1-2H3,(H,17,21)(H,18,22)

> <Ligand InChI Key>
URSFVAYJSVHWBN-UHFFFAOYSA-N

> <BindingDB MonomerID>
51360

> <BindingDB Ligand Name>
5-chloranyl-1,3-dimethyl-N-[2-oxidanylidene-2-[(phenylmethyl)amino]ethyl]pyrazole-4-carboxamide::5-chloro-1,3-dimethyl-N-[2-oxo-2-[(phenylmethyl)amino]ethyl]-4-pyrazolecarboxamide::MLS000763400::N-[2-(benzylamino)-2-keto-ethyl]-5-chloro-1,3-dimethyl-pyrazole-4-carboxamide::N-[2-(benzylamino)-2-oxoethyl]-5-chloro-1,3-dimethyl-1H-pyrazole-4-carboxamide::N-[2-(benzylamino)-2-oxoethyl]-5-chloro-1,3-dimethylpyrazole-4-carboxamide::SMR000336268::cid_4421157

> <Target Name>
DNA repair protein RAD51 homolog 1

> <Target Source Organism According to Curator or DataSource>
Homo sapiens

> <Ki (nM)>


> <IC50 (nM)>
 53000

> <Kd (nM)>


> <EC50 (nM)>


> <kon (M-1-s-1)>


> <koff (s-1)>


> <pH>


> <Temp C>


> <Curation/DataSource>
PubChem

> <Article DOI>


> <BindingDB Entry DOI>
10.7270/Q2QN6558

> <PMID>


> <PubChem AID>
aid1437

> <Patent Number>


> <Authors>
PubChem, PC

> <Date of publication>
11/25/2008

> <Date in BindingDB>
5/31/2011

> <Institution>
PCMD

> <Link to Ligand in BindingDB>
http://www.bindingdb.org/bind/chemsearch/marvin/MolStructure.jsp?monomerid=51360

> <Link to Ligand-Target Pair in BindingDB>
http://www.bindingdb.org/jsp/dbsearch/PrimarySearch_ki.jsp?energyterm=kJ/mole&tag=pol&polymerid=4676&target=DNA+repair+protein+RAD51+homolog+1&column=ki&startPg=0&Increment=50&submit=Search

> <Link to Ligand-Target Pair in BindingDB>
http://www.bindingdb.org/jsp/dbsearch/PrimarySearch_ki.jsp?energyterm=kJ/mole&tag=r21&monomerid=51360&enzyme=DNA+repair+protein+RAD51+homolog+1&column=ki&startPg=0&Increment=50&submit=Search

> <Ligand HET ID in PDB>


> <PDB ID(s) for Ligand-Target Complex>


> <PubChem CID of Ligand>
4421157

> <PubChem SID of Ligand>
252631583

> <ChEBI ID of Ligand>


> <ChEMBL ID of Ligand>


> <DrugBank ID of Ligand>


> <IUPHAR_GRAC ID of Ligand>


> <KEGG ID of Ligand>


> <ZINC ID of Ligand>
ZINC01387817

> <Number of Protein Chains in Target (bigger than 1 implies a multichain complex)>
1

> <BindingDB Target Chain Sequence>
MAMQMQLEANADTSVEEESFGPQPISRLEQCGINANDVKKLEEAGFHTVEAVAYAPKKELINIKGISEAKADKILAEAAKLVPMGFTTATEFHQRRSEIIQITTGSKELDKLLQGGIETGSITEMFGEFRTGKTQICHTLAVTCQLPIDRGGGEGKAMYIDTEGTFRPERLLAVAERYGLSGSDVLDNVAYARAFNTDHQTQLLYQASAMMVESRYALLIVDSATALYRTDYSGRGELSARQMHLARFLRMLLRLADEFGVAVVITNQVVAQVDGAAMFAADPKKPIGGNIIAHASTTRLYLRKGRGETRICKIYDSPCLPEAEAMFAINADGVGDAKD

> <PDB ID(s) of Target Chain>
1N0W,5JZC,5NP7,5NWL,8BQ2,8BR2,8BSC

> <UniProt (SwissProt) Recommended Name of Target Chain>
DNA repair protein RAD51 homolog 1

> <UniProt (SwissProt) Entry Name of Target Chain>
RAD51_HUMAN

> <UniProt (SwissProt) Primary ID of Target Chain>
Q06609

> <UniProt (SwissProt) Secondary ID(s) of Target Chain>
B0FXP0 B2R8T6 Q6FHX9 Q6ZNA8 Q9BV60

> <UniProt (SwissProt) Alternative ID(s) of Target Chain>


> <UniProt (TrEMBL) Submitted Name of Target Chain>


> <UniProt (TrEMBL) Entry Name of Target Chain>


> <UniProt (TrEMBL) Primary ID of Target Chain>


> <UniProt (TrEMBL) Secondary ID(s) of Target Chain>


> <UniProt (TrEMBL) Alternative ID(s) of Target Chain>


$$$$
1489222
  Mrv0541 11251416042D          

 30 33  0  0  0  0            999 V2000
    2.3645    1.9539    0.0000 O   0  0  0  0  0  0  0  0  0  0  0  0
    6.2552    1.3915    0.0000 O   0  0  0  0  0  0  0  0  0  0  0  0
    3.0789   -0.9337    0.0000 N   0  0  0  0  0  0  0  0  0  0  0  0
    3.0789    0.7164    0.0000 N   0  0  0  0  0  0  0  0  0  0  0  0
    3.8797    2.7744    0.0000 N   0  0  0  0  0  0  0  0  0  0  0  0
    2.3645   -0.5212    0.0000 C   0  0  0  0  0  0  0  0  0  0  0  0
    3.7935   -0.5212    0.0000 C   0  0  0  0  0  0  0  0  0  0  0  0
    2.3645    0.3039    0.0000 C   0  0  0  0  0  0  0  0  0  0  0  0
    3.7935    0.3039    0.0000 C   0  0  0  0  0  0  0  0  0  0  0  0
    3.0789   -1.7587    0.0000 C   0  0  0  0  0  0  0  0  0  0  0  0
    3.0789    1.5414    0.0000 C   0  0  0  0  0  0  0  0  0  0  0  0
    2.3645   -2.1712    0.0000 C   0  0  0  0  0  0  0  0  0  0  0  0
    3.7935   -2.1712    0.0000 C   0  0  0  0  0  0  0  0  0  0  0  0
    3.7935    1.9539    0.0000 C   0  0  0  0  0  0  0  0  0  0  0  0
    2.3645   -2.9962    0.0000 C   0  0  0  0  0  0  0  0  0  0  0  0
    3.7935   -2.9962    0.0000 C   0  0  0  0  0  0  0  0  0  0  0  0
    3.0789   -3.4087    0.0000 C   0  0  0  0  0  0  0  0  0  0  0  0
    1.6500   -1.7587    0.0000 C   0  0  0  0  0  0  0  0  0  0  0  0
    4.5471    1.6183    0.0000 C   0  0  0  0  0  0  0  0  0  0  0  0
    5.0992    2.2314    0.0000 C   0  0  0  0  0  0  0  0  0  0  0  0
    4.6867    2.9459    0.0000 C   0  0  0  0  0  0  0  0  0  0  0  0
    3.0789   -4.2337    0.0000 C   0  0  0  0  0  0  0  0  0  0  0  0
    5.9197    2.1452    0.0000 C   0  0  0  0  0  0  0  0  0  0  0  0
    6.4047    2.8126    0.0000 C   0  0  0  0  0  0  0  0  0  0  0  0
    7.2251    2.7263    0.0000 C   0  0  0  0  0  0  0  0  0  0  0  0
    6.0690    3.5663    0.0000 C   0  0  0  0  0  0  0  0  0  0  0  0
    7.7101    3.3939    0.0000 C   0  0  0  0  0  0  0  0  0  0  0  0
    7.5607    1.9727    0.0000 C   0  0  0  0  0  0  0  0  0  0  0  0
    6.5540    4.2337    0.0000 C   0  0  0  0  0  0  0  0  0  0  0  0
    7.3745    4.1475    0.0000 C   0  0  0  0  0  0  0  0  0  0  0  0
  1 11  2  0  0  0  0
  2 23  2  0  0  0  0
  3  6  1  0  0  0  0
  3  7  1  0  0  0  0
  3 10  1  0  0  0  0
  4  8  1  0  0  0  0
  4  9  1  0  0  0  0
  4 11  1  0  0  0  0
  5 14  1  0  0  0  0
  5 21  1  0  0  0  0
  6  8  1  0  0  0  0
  7  9  1  0  0  0  0
 10 12  2  0  0  0  0
 10 13  1  0  0  0  0
 11 14  1  0  0  0  0
 12 15  1  0  0  0  0
 12 18  1  0  0  0  0
 13 16  2  0  0  0  0
 14 19  2  0  0  0  0
 15 17  2  0  0  0  0
 16 17  1  0  0  0  0
 17 22  1  0  0  0  0
 19 20  1  0  0  0  0
 20 21  2  0  0  0  0
 20 23  1  0  0  0  0
 23 24  1  0  0  0  0
 24 25  2  0  0  0  0
 24 26  1  0  0  0  0
 25 27  1  0  0  0  0
 25 28  1  0  0  0  0
 26 29  2  0  0  0  0
 27 30  2  0  0  0  0
 29 30  1  0  0  0  0
M  END
> <From>
www.bindingDB.org

> <BindingDB Reactant_set_id>
95247

> <Ligand InChI>
InChI=1S/C25H27N3O2/c1-17-8-9-23(19(3)14-17)27-10-12-28(13-11-27)25(30)22-15-20(16-26-22)24(29)21-7-5-4-6-18(21)2/h4-9,14-16,26H,10-13H2,1-3H3

> <Ligand InChI Key>
QFJJVBPLUHYZEM-UHFFFAOYSA-N

> <BindingDB MonomerID>
51361

> <BindingDB Ligand Name>
MLS000721625::SMR000335930::[4-(2,4-dimethylphenyl)piperazino][4-(2-methylbenzoyl)-1H-pyrrol-2-yl]methanone::[5-[4-(2,4-dimethylphenyl)piperazin-1-yl]carbonyl-1H-pyrrol-3-yl]-(2-methylphenyl)methanone::[5-[4-(2,4-dimethylphenyl)piperazine-1-carbonyl]-1H-pyrrol-3-yl]-(2-methylphenyl)methanone::[5-[4-(2,4-dimethylphenyl)piperazine-1-carbonyl]-1H-pyrrol-3-yl]-(o-tolyl)methanone::[5-[[4-(2,4-dimethylphenyl)-1-piperazinyl]-oxomethyl]-1H-pyrrol-3-yl]-(2-methylphenyl)methanone::cid_1489222

> <Target Name>
DNA repair protein RAD51 homolog 1

> <Target Source Organism According to Curator or DataSource>
Homo sapiens

> <Ki (nM)>


> <IC50 (nM)>
 53000

> <Kd (nM)>


> <EC50 (nM)>


> <kon (M-1-s-1)>


> <koff (s-1)>


> <pH>


> <Temp C>


> <Curation/DataSource>
PubChem

> <Article DOI>


> <BindingDB Entry DOI>
10.7270/Q2QN6558

> <PMID>


> <PubChem AID>
aid1437

> <Patent Number>


> <Authors>
PubChem, PC

> <Date of publication>
11/25/2008

> <Date in BindingDB>
5/31/2011

> <Institution>
PCMD

> <Link to Ligand in BindingDB>
http://www.bindingdb.org/bind/chemsearch/marvin/MolStructure.jsp?monomerid=51361

> <Link to Ligand-Target Pair in BindingDB>
http://www.bindingdb.org/jsp/dbsearch/PrimarySearch_ki.jsp?energyterm=kJ/mole&tag=pol&polymerid=4676&target=DNA+repair+protein+RAD51+homolog+1&column=ki&startPg=0&Increment=50&submit=Search

> <Link to Ligand-Target Pair in BindingDB>
http://www.bindingdb.org/jsp/dbsearch/PrimarySearch_ki.jsp?energyterm=kJ/mole&tag=r21&monomerid=51361&enzyme=DNA+repair+protein+RAD51+homolog+1&column=ki&startPg=0&Increment=50&submit=Search

> <Ligand HET ID in PDB>


> <PDB ID(s) for Ligand-Target Complex>


> <PubChem CID of Ligand>
1489222

> <PubChem SID of Ligand>
252631584

> <ChEBI ID of Ligand>


> <ChEMBL ID of Ligand>


> <DrugBank ID of Ligand>


> <IUPHAR_GRAC ID of Ligand>


> <KEGG ID of Ligand>


> <ZINC ID of Ligand>
ZINC01392770

> <Number of Protein Chains in Target (bigger than 1 implies a multichain complex)>
1

> <BindingDB Target Chain Sequence>
MAMQMQLEANADTSVEEESFGPQPISRLEQCGINANDVKKLEEAGFHTVEAVAYAPKKELINIKGISEAKADKILAEAAKLVPMGFTTATEFHQRRSEIIQITTGSKELDKLLQGGIETGSITEMFGEFRTGKTQICHTLAVTCQLPIDRGGGEGKAMYIDTEGTFRPERLLAVAERYGLSGSDVLDNVAYARAFNTDHQTQLLYQASAMMVESRYALLIVDSATALYRTDYSGRGELSARQMHLARFLRMLLRLADEFGVAVVITNQVVAQVDGAAMFAADPKKPIGGNIIAHASTTRLYLRKGRGETRICKIYDSPCLPEAEAMFAINADGVGDAKD

> <PDB ID(s) of Target Chain>
1N0W,5JZC,5NP7,5NWL,8BQ2,8BR2,8BSC

> <UniProt (SwissProt) Recommended Name of Target Chain>
DNA repair protein RAD51 homolog 1

> <UniProt (SwissProt) Entry Name of Target Chain>
RAD51_HUMAN

> <UniProt (SwissProt) Primary ID of Target Chain>
Q06609

> <UniProt (SwissProt) Secondary ID(s) of Target Chain>
B0FXP0 B2R8T6 Q6FHX9 Q6ZNA8 Q9BV60

> <UniProt (SwissProt) Alternative ID(s) of Target Chain>


> <UniProt (TrEMBL) Submitted Name of Target Chain>


> <UniProt (TrEMBL) Entry Name of Target Chain>


> <UniProt (TrEMBL) Primary ID of Target Chain>


> <UniProt (TrEMBL) Secondary ID(s) of Target Chain>


> <UniProt (TrEMBL) Alternative ID(s) of Target Chain>


$$$$
1889499
  Mrv0541 11251416042D          

 28 30  0  0  0  0            999 V2000
    6.5282    2.3044    0.0000 S   0  0  0  0  0  0  0  0  0  0  0  0
    6.1477    0.8843    0.0000 S   0  0  0  0  0  0  0  0  0  0  0  0
    7.6843    4.5733    0.0000 S   0  0  0  0  0  0  0  0  0  0  0  0
    4.6956    3.3994    0.0000 O   0  0  0  0  0  0  0  0  0  0  0  0
    4.5080   -0.8607    0.0000 O   0  0  0  0  0  0  0  0  0  0  0  0
    1.6500   -1.6858    0.0000 O   0  0  0  0  0  0  0  0  0  0  0  0
    5.2224    2.0268    0.0000 N   0  0  0  0  0  0  0  0  0  0  0  0
    3.0790   -0.8607    0.0000 N   0  0  0  0  0  0  0  0  0  0  0  0
    3.0790   -1.6858    0.0000 N   0  0  0  0  0  0  0  0  0  0  0  0
    3.0790   -4.1608    0.0000 N   0  0  0  0  0  0  0  0  0  0  0  0
    4.5080    1.6143    0.0000 C   0  0  0  0  0  0  0  0  0  0  0  0
    4.5080    0.7893    0.0000 C   0  0  0  0  0  0  0  0  0  0  0  0
    3.7935    0.3768    0.0000 C   0  0  0  0  0  0  0  0  0  0  0  0
    5.3087    2.8474    0.0000 C   0  0  0  0  0  0  0  0  0  0  0  0
    5.9762    1.6913    0.0000 C   0  0  0  0  0  0  0  0  0  0  0  0
    6.1157    3.0189    0.0000 C   0  0  0  0  0  0  0  0  0  0  0  0
    3.7935   -0.4482    0.0000 C   0  0  0  0  0  0  0  0  0  0  0  0
    6.4512    3.7726    0.0000 C   0  0  0  0  0  0  0  0  0  0  0  0
    7.2718    3.8588    0.0000 C   0  0  0  0  0  0  0  0  0  0  0  0
    7.8238    3.2457    0.0000 C   0  0  0  0  0  0  0  0  0  0  0  0
    2.3645   -2.0983    0.0000 C   0  0  0  0  0  0  0  0  0  0  0  0
    8.5775    3.5812    0.0000 C   0  0  0  0  0  0  0  0  0  0  0  0
    2.3645   -2.9233    0.0000 C   0  0  0  0  0  0  0  0  0  0  0  0
    8.4913    4.4018    0.0000 C   0  0  0  0  0  0  0  0  0  0  0  0
    1.6500   -3.3358    0.0000 C   0  0  0  0  0  0  0  0  0  0  0  0
    3.0790   -3.3358    0.0000 C   0  0  0  0  0  0  0  0  0  0  0  0
    1.6500   -4.1608    0.0000 C   0  0  0  0  0  0  0  0  0  0  0  0
    2.3645   -4.5733    0.0000 C   0  0  0  0  0  0  0  0  0  0  0  0
  1 15  1  0  0  0  0
  1 16  1  0  0  0  0
  2 15  2  0  0  0  0
  3 19  1  0  0  0  0
  3 24  1  0  0  0  0
  4 14  2  0  0  0  0
  5 17  2  0  0  0  0
  6 21  2  0  0  0  0
  7 11  1  0  0  0  0
  7 14  1  0  0  0  0
  7 15  1  0  0  0  0
  8  9  1  0  0  0  0
  8 17  1  0  0  0  0
  9 21  1  0  0  0  0
 10 26  2  0  0  0  0
 10 28  1  0  0  0  0
 11 12  1  0  0  0  0
 12 13  1  0  0  0  0
 13 17  1  0  0  0  0
 14 16  1  0  0  0  0
 16 18  2  0  0  0  0
 18 19  1  0  0  0  0
 19 20  2  0  0  0  0
 20 22  1  0  0  0  0
 21 23  1  0  0  0  0
 22 24  2  0  0  0  0
 23 25  2  0  0  0  0
 23 26  1  0  0  0  0
 25 27  1  0  0  0  0
 27 28  2  0  0  0  0
M  END
> <From>
www.bindingDB.org

> <BindingDB Reactant_set_id>
95248

> <Ligand InChI>
InChI=1S/C18H16N4O3S3/c23-15(20-21-16(24)12-4-1-7-19-11-12)6-2-8-22-17(25)14(28-18(22)26)10-13-5-3-9-27-13/h1,3-5,7,9-11H,2,6,8H2,(H,20,23)(H,21,24)/b14-10-

> <Ligand InChI Key>
CVFLOWUXPAKUMH-UVTDQMKNSA-N

> <BindingDB MonomerID>
51362

> <BindingDB Ligand Name>
MLS000692887::N'-[1-oxo-4-[(5Z)-4-oxo-2-sulfanylidene-5-(thiophen-2-ylmethylidene)-3-thiazolidinyl]butyl]-3-pyridinecarbohydrazide::N'-[4-[(5Z)-4-keto-5-(2-thenylidene)-2-thioxo-thiazolidin-3-yl]butanoyl]nicotinohydrazide::N'-[4-[(5Z)-4-oxidanylidene-2-sulfanylidene-5-(thiophen-2-ylmethylidene)-1,3-thiazolidin-3-yl]butanoyl]pyridine-3-carbohydrazide::N'-[4-[(5Z)-4-oxo-2-sulfanylidene-5-(thiophen-2-ylmethylidene)-1,3-thiazolidin-3-yl]butanoyl]pyridine-3-carbohydrazide::SMR000285593::cid_1889499

> <Target Name>
DNA repair protein RAD51 homolog 1

> <Target Source Organism According to Curator or DataSource>
Homo sapiens

> <Ki (nM)>


> <IC50 (nM)>
 53000

> <Kd (nM)>


> <EC50 (nM)>


> <kon (M-1-s-1)>


> <koff (s-1)>


> <pH>


> <Temp C>


> <Curation/DataSource>
PubChem

> <Article DOI>


> <BindingDB Entry DOI>
10.7270/Q2QN6558

> <PMID>


> <PubChem AID>
aid1437

> <Patent Number>


> <Authors>
PubChem, PC

> <Date of publication>
11/25/2008

> <Date in BindingDB>
5/31/2011

> <Institution>
PCMD

> <Link to Ligand in BindingDB>
http://www.bindingdb.org/bind/chemsearch/marvin/MolStructure.jsp?monomerid=51362

> <Link to Ligand-Target Pair in BindingDB>
http://www.bindingdb.org/jsp/dbsearch/PrimarySearch_ki.jsp?energyterm=kJ/mole&tag=pol&polymerid=4676&target=DNA+repair+protein+RAD51+homolog+1&column=ki&startPg=0&Increment=50&submit=Search

> <Link to Ligand-Target Pair in BindingDB>
http://www.bindingdb.org/jsp/dbsearch/PrimarySearch_ki.jsp?energyterm=kJ/mole&tag=r21&monomerid=51362&enzyme=DNA+repair+protein+RAD51+homolog+1&column=ki&startPg=0&Increment=50&submit=Search

> <Ligand HET ID in PDB>


> <PDB ID(s) for Ligand-Target Complex>


> <PubChem CID of Ligand>
1889499

> <PubChem SID of Ligand>
252631585

> <ChEBI ID of Ligand>


> <ChEMBL ID of Ligand>


> <DrugBank ID of Ligand>


> <IUPHAR_GRAC ID of Ligand>


> <KEGG ID of Ligand>


> <ZINC ID of Ligand>
ZINC35335365

> <Number of Protein Chains in Target (bigger than 1 implies a multichain complex)>
1

> <BindingDB Target Chain Sequence>
MAMQMQLEANADTSVEEESFGPQPISRLEQCGINANDVKKLEEAGFHTVEAVAYAPKKELINIKGISEAKADKILAEAAKLVPMGFTTATEFHQRRSEIIQITTGSKELDKLLQGGIETGSITEMFGEFRTGKTQICHTLAVTCQLPIDRGGGEGKAMYIDTEGTFRPERLLAVAERYGLSGSDVLDNVAYARAFNTDHQTQLLYQASAMMVESRYALLIVDSATALYRTDYSGRGELSARQMHLARFLRMLLRLADEFGVAVVITNQVVAQVDGAAMFAADPKKPIGGNIIAHASTTRLYLRKGRGETRICKIYDSPCLPEAEAMFAINADGVGDAKD

> <PDB ID(s) of Target Chain>
1N0W,5JZC,5NP7,5NWL,8BQ2,8BR2,8BSC

> <UniProt (SwissProt) Recommended Name of Target Chain>
DNA repair protein RAD51 homolog 1

> <UniProt (SwissProt) Entry Name of Target Chain>
RAD51_HUMAN

> <UniProt (SwissProt) Primary ID of Target Chain>
Q06609

> <UniProt (SwissProt) Secondary ID(s) of Target Chain>
B0FXP0 B2R8T6 Q6FHX9 Q6ZNA8 Q9BV60

> <UniProt (SwissProt) Alternative ID(s) of Target Chain>


> <UniProt (TrEMBL) Submitted Name of Target Chain>


> <UniProt (TrEMBL) Entry Name of Target Chain>


> <UniProt (TrEMBL) Primary ID of Target Chain>


> <UniProt (TrEMBL) Secondary ID(s) of Target Chain>


> <UniProt (TrEMBL) Alternative ID(s) of Target Chain>


$$$$
686457
  Mrv0541 11251416042D          

 17 18  0  0  0  0            999 V2000
    2.3645   -3.3479    0.0000 Cl  0  0  0  0  0  0  0  0  0  0  0  0
    3.0790    1.1897    0.0000 S   0  0  0  0  0  0  0  0  0  0  0  0
    3.8797    2.4227    0.0000 S   0  0  0  0  0  0  0  0  0  0  0  0
    1.6500    0.3647    0.0000 O   0  0  0  0  0  0  0  0  0  0  0  0
    4.5472    1.2667    0.0000 N   0  0  0  0  0  0  0  0  0  0  0  0
    5.0993    1.8797    0.0000 N   0  0  0  0  0  0  0  0  0  0  0  0
    2.3645   -0.8729    0.0000 C   0  0  0  0  0  0  0  0  0  0  0  0
    2.3645   -0.0479    0.0000 C   0  0  0  0  0  0  0  0  0  0  0  0
    3.0790    0.3647    0.0000 C   0  0  0  0  0  0  0  0  0  0  0  0
    1.6500   -1.2854    0.0000 C   0  0  0  0  0  0  0  0  0  0  0  0
    3.0790   -1.2854    0.0000 C   0  0  0  0  0  0  0  0  0  0  0  0
    1.6500   -2.1104    0.0000 C   0  0  0  0  0  0  0  0  0  0  0  0
    3.0790   -2.1104    0.0000 C   0  0  0  0  0  0  0  0  0  0  0  0
    2.3645   -2.5229    0.0000 C   0  0  0  0  0  0  0  0  0  0  0  0
    3.7935    1.6022    0.0000 C   0  0  0  0  0  0  0  0  0  0  0  0
    4.6868    2.5942    0.0000 C   0  0  0  0  0  0  0  0  0  0  0  0
    5.0223    3.3479    0.0000 C   0  0  0  0  0  0  0  0  0  0  0  0
  1 14  1  0  0  0  0
  2  9  1  0  0  0  0
  2 15  1  0  0  0  0
  3 15  1  0  0  0  0
  3 16  1  0  0  0  0
  4  8  2  0  0  0  0
  5  6  1  0  0  0  0
  5 15  2  0  0  0  0
  6 16  2  0  0  0  0
  7  8  1  0  0  0  0
  7 10  2  0  0  0  0
  7 11  1  0  0  0  0
  8  9  1  0  0  0  0
 10 12  1  0  0  0  0
 11 13  2  0  0  0  0
 12 14  2  0  0  0  0
 13 14  1  0  0  0  0
 16 17  1  0  0  0  0
M  END
> <From>
www.bindingDB.org

> <BindingDB Reactant_set_id>
95249

> <Ligand InChI>
InChI=1S/C11H9ClN2OS2/c1-7-13-14-11(17-7)16-6-10(15)8-2-4-9(12)5-3-8/h2-5H,6H2,1H3

> <Ligand InChI Key>
AWMRCOYYVOFYGS-UHFFFAOYSA-N

> <BindingDB MonomerID>
51363

> <BindingDB Ligand Name>
1-(4-chlorophenyl)-2-[(5-methyl-1,3,4-thiadiazol-2-yl)sulfanyl]ethanone::1-(4-chlorophenyl)-2-[(5-methyl-1,3,4-thiadiazol-2-yl)thio]ethanone::MLS000723830::SMR000305425::cid_686457

> <Target Name>
DNA repair protein RAD51 homolog 1

> <Target Source Organism According to Curator or DataSource>
Homo sapiens

> <Ki (nM)>


> <IC50 (nM)>
 53000

> <Kd (nM)>


> <EC50 (nM)>


> <kon (M-1-s-1)>


> <koff (s-1)>


> <pH>


> <Temp C>


> <Curation/DataSource>
PubChem

> <Article DOI>


> <BindingDB Entry DOI>
10.7270/Q2QN6558

> <PMID>


> <PubChem AID>
aid1437

> <Patent Number>


> <Authors>
PubChem, PC

> <Date of publication>
11/25/2008

> <Date in BindingDB>
5/31/2011

> <Institution>
PCMD

> <Link to Ligand in BindingDB>
http://www.bindingdb.org/bind/chemsearch/marvin/MolStructure.jsp?monomerid=51363

> <Link to Ligand-Target Pair in BindingDB>
http://www.bindingdb.org/jsp/dbsearch/PrimarySearch_ki.jsp?energyterm=kJ/mole&tag=pol&polymerid=4676&target=DNA+repair+protein+RAD51+homolog+1&column=ki&startPg=0&Increment=50&submit=Search

> <Link to Ligand-Target Pair in BindingDB>
http://www.bindingdb.org/jsp/dbsearch/PrimarySearch_ki.jsp?energyterm=kJ/mole&tag=r21&monomerid=51363&enzyme=DNA+repair+protein+RAD51+homolog+1&column=ki&startPg=0&Increment=50&submit=Search

> <Ligand HET ID in PDB>


> <PDB ID(s) for Ligand-Target Complex>


> <PubChem CID of Ligand>
686457

> <PubChem SID of Ligand>
252631586

> <ChEBI ID of Ligand>


> <ChEMBL ID of Ligand>


> <DrugBank ID of Ligand>


> <IUPHAR_GRAC ID of Ligand>


> <KEGG ID of Ligand>


> <ZINC ID of Ligand>
ZINC05050848

> <Number of Protein Chains in Target (bigger than 1 implies a multichain complex)>
1

> <BindingDB Target Chain Sequence>
MAMQMQLEANADTSVEEESFGPQPISRLEQCGINANDVKKLEEAGFHTVEAVAYAPKKELINIKGISEAKADKILAEAAKLVPMGFTTATEFHQRRSEIIQITTGSKELDKLLQGGIETGSITEMFGEFRTGKTQICHTLAVTCQLPIDRGGGEGKAMYIDTEGTFRPERLLAVAERYGLSGSDVLDNVAYARAFNTDHQTQLLYQASAMMVESRYALLIVDSATALYRTDYSGRGELSARQMHLARFLRMLLRLADEFGVAVVITNQVVAQVDGAAMFAADPKKPIGGNIIAHASTTRLYLRKGRGETRICKIYDSPCLPEAEAMFAINADGVGDAKD

> <PDB ID(s) of Target Chain>
1N0W,5JZC,5NP7,5NWL,8BQ2,8BR2,8BSC

> <UniProt (SwissProt) Recommended Name of Target Chain>
DNA repair protein RAD51 homolog 1

> <UniProt (SwissProt) Entry Name of Target Chain>
RAD51_HUMAN

> <UniProt (SwissProt) Primary ID of Target Chain>
Q06609

> <UniProt (SwissProt) Secondary ID(s) of Target Chain>
B0FXP0 B2R8T6 Q6FHX9 Q6ZNA8 Q9BV60

> <UniProt (SwissProt) Alternative ID(s) of Target Chain>


> <UniProt (TrEMBL) Submitted Name of Target Chain>


> <UniProt (TrEMBL) Entry Name of Target Chain>


> <UniProt (TrEMBL) Primary ID of Target Chain>


> <UniProt (TrEMBL) Secondary ID(s) of Target Chain>


> <UniProt (TrEMBL) Alternative ID(s) of Target Chain>


$$$$
6520603
  Mrv0541 11251416042D          

 20 21  0  0  0  0            999 V2000
    1.6500    1.6995    0.0000 O   0  0  0  0  0  0  0  0  0  0  0  0
    7.3659   -2.4256    0.0000 O   0  0  0  0  0  0  0  0  0  0  0  0
    5.9370   -2.4256    0.0000 O   0  0  0  0  0  0  0  0  0  0  0  0
    3.7935    2.9371    0.0000 O   0  0  0  0  0  0  0  0  0  0  0  0
    5.2224    0.4620    0.0000 N   0  0  0  0  0  0  0  0  0  0  0  0
    4.5080    0.0495    0.0000 N   0  0  0  0  0  0  0  0  0  0  0  0
    5.9370    0.0495    0.0000 C   0  0  0  0  0  0  0  0  0  0  0  0
    5.9370   -0.7755    0.0000 C   0  0  0  0  0  0  0  0  0  0  0  0
    6.6515   -1.1880    0.0000 C   0  0  0  0  0  0  0  0  0  0  0  0
    3.7935    0.4620    0.0000 C   0  0  0  0  0  0  0  0  0  0  0  0
    6.6515    0.4620    0.0000 C   0  0  0  0  0  0  0  0  0  0  0  0
    7.3659   -0.7755    0.0000 C   0  0  0  0  0  0  0  0  0  0  0  0
    7.3659    0.0495    0.0000 C   0  0  0  0  0  0  0  0  0  0  0  0
    3.7935    1.2870    0.0000 C   0  0  0  0  0  0  0  0  0  0  0  0
    3.0790    1.6995    0.0000 C   0  0  0  0  0  0  0  0  0  0  0  0
    3.0790    0.0495    0.0000 C   0  0  0  0  0  0  0  0  0  0  0  0
    2.3645    1.2870    0.0000 C   0  0  0  0  0  0  0  0  0  0  0  0
    2.3645    0.4620    0.0000 C   0  0  0  0  0  0  0  0  0  0  0  0
    6.6515   -2.0130    0.0000 C   0  0  0  0  0  0  0  0  0  0  0  0
    3.0790    2.5246    0.0000 C   0  0  0  0  0  0  0  0  0  0  0  0
  1 17  1  0  0  0  0
  2 19  1  0  0  0  0
  3 19  2  0  0  0  0
  4 20  2  0  0  0  0
  5  6  2  0  0  0  0
  5  7  1  4  0  0  0
  6 10  1  0  0  0  0
  7  8  2  0  0  0  0
  7 11  1  0  0  0  0
  8  9  1  0  0  0  0
  9 12  2  0  0  0  0
  9 19  1  0  0  0  0
 10 14  2  0  0  0  0
 10 16  1  0  0  0  0
 11 13  2  0  0  0  0
 12 13  1  0  0  0  0
 14 15  1  0  0  0  0
 15 17  2  0  0  0  0
 15 20  1  0  0  0  0
 16 18  2  0  0  0  0
 17 18  1  0  0  0  0
M  END
> <From>
www.bindingDB.org

> <BindingDB Reactant_set_id>
95250

> <Ligand InChI>
InChI=1S/C14H10N2O4/c17-8-10-7-12(4-5-13(10)18)16-15-11-3-1-2-9(6-11)14(19)20/h1-8,18H,(H,19,20)

> <Ligand InChI Key>
VEUVVTPWFGTPGG-UHFFFAOYSA-N

> <BindingDB MonomerID>
51315

> <BindingDB Ligand Name>
3-[(2Z)-2-(3-formyl-4-oxo-1-cyclohexa-2,5-dienylidene)hydrazinyl]benzoic acid::3-[(2Z)-2-(3-formyl-4-oxocyclohexa-2,5-dien-1-ylidene)hydrazinyl]benzoic acid::3-[(2Z)-2-(3-methanoyl-4-oxidanylidene-cyclohexa-2,5-dien-1-ylidene)hydrazinyl]benzoic acid::3-[(E)-(3-formyl-4-hydroxyphenyl)diazenyl]benzoic acid::3-[(N'Z)-N'-(3-formyl-4-keto-cyclohexa-2,5-dien-1-ylidene)hydrazino]benzoic acid::MLS000685416::SMR000312380::cid_6520603

> <Target Name>
DNA repair protein RAD51 homolog 1

> <Target Source Organism According to Curator or DataSource>
Homo sapiens

> <Ki (nM)>


> <IC50 (nM)>
 50880

> <Kd (nM)>


> <EC50 (nM)>


> <kon (M-1-s-1)>


> <koff (s-1)>


> <pH>


> <Temp C>


> <Curation/DataSource>
PubChem

> <Article DOI>


> <BindingDB Entry DOI>
10.7270/Q2QN6558

> <PMID>


> <PubChem AID>
aid1437

> <Patent Number>


> <Authors>
PubChem, PC

> <Date of publication>
11/25/2008

> <Date in BindingDB>
5/31/2011

> <Institution>
PCMD

> <Link to Ligand in BindingDB>
http://www.bindingdb.org/bind/chemsearch/marvin/MolStructure.jsp?monomerid=51315

> <Link to Ligand-Target Pair in BindingDB>
http://www.bindingdb.org/jsp/dbsearch/PrimarySearch_ki.jsp?energyterm=kJ/mole&tag=pol&polymerid=4676&target=DNA+repair+protein+RAD51+homolog+1&column=ki&startPg=0&Increment=50&submit=Search

> <Link to Ligand-Target Pair in BindingDB>
http://www.bindingdb.org/jsp/dbsearch/PrimarySearch_ki.jsp?energyterm=kJ/mole&tag=r21&monomerid=51315&enzyme=DNA+repair+protein+RAD51+homolog+1&column=ki&startPg=0&Increment=50&submit=Search

> <Ligand HET ID in PDB>


> <PDB ID(s) for Ligand-Target Complex>


> <PubChem CID of Ligand>
6520603

> <PubChem SID of Ligand>
252631540

> <ChEBI ID of Ligand>


> <ChEMBL ID of Ligand>


> <DrugBank ID of Ligand>


> <IUPHAR_GRAC ID of Ligand>


> <KEGG ID of Ligand>


> <ZINC ID of Ligand>
ZINC00114704

> <Number of Protein Chains in Target (bigger than 1 implies a multichain complex)>
1

> <BindingDB Target Chain Sequence>
MAMQMQLEANADTSVEEESFGPQPISRLEQCGINANDVKKLEEAGFHTVEAVAYAPKKELINIKGISEAKADKILAEAAKLVPMGFTTATEFHQRRSEIIQITTGSKELDKLLQGGIETGSITEMFGEFRTGKTQICHTLAVTCQLPIDRGGGEGKAMYIDTEGTFRPERLLAVAERYGLSGSDVLDNVAYARAFNTDHQTQLLYQASAMMVESRYALLIVDSATALYRTDYSGRGELSARQMHLARFLRMLLRLADEFGVAVVITNQVVAQVDGAAMFAADPKKPIGGNIIAHASTTRLYLRKGRGETRICKIYDSPCLPEAEAMFAINADGVGDAKD

> <PDB ID(s) of Target Chain>
1N0W,5JZC,5NP7,5NWL,8BQ2,8BR2,8BSC

> <UniProt (SwissProt) Recommended Name of Target Chain>
DNA repair protein RAD51 homolog 1

> <UniProt (SwissProt) Entry Name of Target Chain>
RAD51_HUMAN

> <UniProt (SwissProt) Primary ID of Target Chain>
Q06609

> <UniProt (SwissProt) Secondary ID(s) of Target Chain>
B0FXP0 B2R8T6 Q6FHX9 Q6ZNA8 Q9BV60

> <UniProt (SwissProt) Alternative ID(s) of Target Chain>


> <UniProt (TrEMBL) Submitted Name of Target Chain>


> <UniProt (TrEMBL) Entry Name of Target Chain>


> <UniProt (TrEMBL) Primary ID of Target Chain>


> <UniProt (TrEMBL) Secondary ID(s) of Target Chain>


> <UniProt (TrEMBL) Alternative ID(s) of Target Chain>


$$$$
1271299
  Mrv0541 11251415472D          

 25 27  0  0  0  0            999 V2000
    2.3645   -1.4438    0.0000 S   0  0  0  0  0  0  0  0  0  0  0  0
    2.3645    0.2063    0.0000 S   0  0  0  0  0  0  0  0  0  0  0  0
    1.9520   -2.1582    0.0000 O   0  0  0  0  0  0  0  0  0  0  0  0
    2.7770   -2.1582    0.0000 O   0  0  0  0  0  0  0  0  0  0  0  0
    1.9520    0.9207    0.0000 O   0  0  0  0  0  0  0  0  0  0  0  0
    2.7770    0.9207    0.0000 O   0  0  0  0  0  0  0  0  0  0  0  0
    4.5080   -0.2063    0.0000 O   0  0  0  0  0  0  0  0  0  0  0  0
    3.7935    1.0313    0.0000 N   0  0  0  0  0  0  0  0  0  0  0  0
    1.6500   -1.0313    0.0000 C   0  0  0  0  0  0  0  0  0  0  0  0
    1.6500   -0.2063    0.0000 C   0  0  0  0  0  0  0  0  0  0  0  0
    3.0790   -1.0313    0.0000 C   0  0  0  0  0  0  0  0  0  0  0  0
    3.0790   -0.2063    0.0000 C   0  0  0  0  0  0  0  0  0  0  0  0
    3.7935   -1.4438    0.0000 C   0  0  0  0  0  0  0  0  0  0  0  0
    3.7935    0.2063    0.0000 C   0  0  0  0  0  0  0  0  0  0  0  0
    3.7935   -2.2688    0.0000 C   0  0  0  0  0  0  0  0  0  0  0  0
    4.5080   -1.0313    0.0000 C   0  0  0  0  0  0  0  0  0  0  0  0
    4.5080   -2.6813    0.0000 C   0  0  0  0  0  0  0  0  0  0  0  0
    5.2224   -1.4438    0.0000 C   0  0  0  0  0  0  0  0  0  0  0  0
    4.5080    1.4438    0.0000 C   0  0  0  0  0  0  0  0  0  0  0  0
    5.2224   -2.2688    0.0000 C   0  0  0  0  0  0  0  0  0  0  0  0
    5.2224    1.0313    0.0000 C   0  0  0  0  0  0  0  0  0  0  0  0
    4.5080    2.2688    0.0000 C   0  0  0  0  0  0  0  0  0  0  0  0
    5.9370    1.4438    0.0000 C   0  0  0  0  0  0  0  0  0  0  0  0
    5.2224    2.6813    0.0000 C   0  0  0  0  0  0  0  0  0  0  0  0
    5.9370    2.2688    0.0000 C   0  0  0  0  0  0  0  0  0  0  0  0
  1  3  2  0  0  0  0
  1  4  2  0  0  0  0
  1  9  1  0  0  0  0
  1 11  1  0  0  0  0
  2  5  2  0  0  0  0
  2  6  2  0  0  0  0
  2 10  1  0  0  0  0
  2 12  1  0  0  0  0
  7 14  2  0  0  0  0
  8 14  1  0  0  0  0
  8 19  1  0  0  0  0
  9 10  1  0  0  0  0
 11 12  2  0  0  0  0
 11 13  1  0  0  0  0
 12 14  1  0  0  0  0
 13 15  2  0  0  0  0
 13 16  1  0  0  0  0
 15 17  1  0  0  0  0
 16 18  2  0  0  0  0
 17 20  2  0  0  0  0
 18 20  1  0  0  0  0
 19 21  2  0  0  0  0
 19 22  1  0  0  0  0
 21 23  1  0  0  0  0
 22 24  2  0  0  0  0
 23 25  2  0  0  0  0
 24 25  1  0  0  0  0
M  END
> <From>
www.bindingDB.org

> <BindingDB Reactant_set_id>
95251

> <Ligand InChI>
InChI=1S/C17H15NO5S2/c19-17(18-14-9-5-2-6-10-14)16-15(13-7-3-1-4-8-13)24(20,21)11-12-25(16,22)23/h1-10H,11-12H2,(H,18,19)

> <Ligand InChI Key>
NZRLBYAVNUTULU-UHFFFAOYSA-N

> <BindingDB MonomerID>
43226

> <BindingDB Ligand Name>
1,1,4,4-tetraketo-N,6-diphenyl-2,3-dihydro-1,4-dithiin-5-carboxamide::1,1,4,4-tetrakis(oxidanylidene)-N,6-diphenyl-2,3-dihydro-1,4-dithiine-5-carboxamide::1,1,4,4-tetraoxo-N,6-diphenyl-2,3-dihydro-1,4-dithiin-5-carboxamide::1,1,4,4-tetraoxo-N,6-diphenyl-2,3-dihydro-1,4-dithiine-5-carboxamide::MLS000728201::N,3-diphenyl-5,6-dihydro-1,4-dithiine-2-carboxamide 1,1,4,4-tetraoxide::SMR000306894::cid_1271299

> <Target Name>
DNA repair protein RAD51 homolog 1

> <Target Source Organism According to Curator or DataSource>
Homo sapiens

> <Ki (nM)>


> <IC50 (nM)>
 53000

> <Kd (nM)>


> <EC50 (nM)>


> <kon (M-1-s-1)>


> <koff (s-1)>


> <pH>


> <Temp C>


> <Curation/DataSource>
PubChem

> <Article DOI>


> <BindingDB Entry DOI>
10.7270/Q2QN6558

> <PMID>


> <PubChem AID>
aid1437

> <Patent Number>


> <Authors>
PubChem, PC

> <Date of publication>
11/25/2008

> <Date in BindingDB>
5/31/2011

> <Institution>
PCMD

> <Link to Ligand in BindingDB>
http://www.bindingdb.org/bind/chemsearch/marvin/MolStructure.jsp?monomerid=43226

> <Link to Ligand-Target Pair in BindingDB>
http://www.bindingdb.org/jsp/dbsearch/PrimarySearch_ki.jsp?energyterm=kJ/mole&tag=pol&polymerid=4676&target=DNA+repair+protein+RAD51+homolog+1&column=ki&startPg=0&Increment=50&submit=Search

> <Link to Ligand-Target Pair in BindingDB>
http://www.bindingdb.org/jsp/dbsearch/PrimarySearch_ki.jsp?energyterm=kJ/mole&tag=r21&monomerid=43226&enzyme=DNA+repair+protein+RAD51+homolog+1&column=ki&startPg=0&Increment=50&submit=Search

> <Ligand HET ID in PDB>


> <PDB ID(s) for Ligand-Target Complex>


> <PubChem CID of Ligand>
1271299

> <PubChem SID of Ligand>
252623910

> <ChEBI ID of Ligand>


> <ChEMBL ID of Ligand>


> <DrugBank ID of Ligand>


> <IUPHAR_GRAC ID of Ligand>


> <KEGG ID of Ligand>


> <ZINC ID of Ligand>
ZINC01085786

> <Number of Protein Chains in Target (bigger than 1 implies a multichain complex)>
1

> <BindingDB Target Chain Sequence>
MAMQMQLEANADTSVEEESFGPQPISRLEQCGINANDVKKLEEAGFHTVEAVAYAPKKELINIKGISEAKADKILAEAAKLVPMGFTTATEFHQRRSEIIQITTGSKELDKLLQGGIETGSITEMFGEFRTGKTQICHTLAVTCQLPIDRGGGEGKAMYIDTEGTFRPERLLAVAERYGLSGSDVLDNVAYARAFNTDHQTQLLYQASAMMVESRYALLIVDSATALYRTDYSGRGELSARQMHLARFLRMLLRLADEFGVAVVITNQVVAQVDGAAMFAADPKKPIGGNIIAHASTTRLYLRKGRGETRICKIYDSPCLPEAEAMFAINADGVGDAKD

> <PDB ID(s) of Target Chain>
1N0W,5JZC,5NP7,5NWL,8BQ2,8BR2,8BSC

> <UniProt (SwissProt) Recommended Name of Target Chain>
DNA repair protein RAD51 homolog 1

> <UniProt (SwissProt) Entry Name of Target Chain>
RAD51_HUMAN

> <UniProt (SwissProt) Primary ID of Target Chain>
Q06609

> <UniProt (SwissProt) Secondary ID(s) of Target Chain>
B0FXP0 B2R8T6 Q6FHX9 Q6ZNA8 Q9BV60

> <UniProt (SwissProt) Alternative ID(s) of Target Chain>


> <UniProt (TrEMBL) Submitted Name of Target Chain>


> <UniProt (TrEMBL) Entry Name of Target Chain>


> <UniProt (TrEMBL) Primary ID of Target Chain>


> <UniProt (TrEMBL) Secondary ID(s) of Target Chain>


> <UniProt (TrEMBL) Alternative ID(s) of Target Chain>


$$$$
1482759
  Mrv0541 11251416042D          

 15 16  0  0  0  0            999 V2000
    7.1336    0.0066    0.0000 S   0  0  0  0  0  0  0  0  0  0  0  0
    2.8075    0.9085    0.0000 S   0  0  0  0  0  0  0  0  0  0  0  0
    4.9509   -0.3290    0.0000 N   0  0  0  0  0  0  0  0  0  0  0  0
    3.5220   -0.3290    0.0000 N   0  0  0  0  0  0  0  0  0  0  0  0
    4.2365    0.9085    0.0000 N   0  0  0  0  0  0  0  0  0  0  0  0
    2.0930   -0.3290    0.0000 N   0  0  0  0  0  0  0  0  0  0  0  0
    5.6655    0.0835    0.0000 C   0  0  0  0  0  0  0  0  0  0  0  0
    6.3799   -0.3290    0.0000 C   0  0  0  0  0  0  0  0  0  0  0  0
    5.6655    0.9085    0.0000 C   0  0  0  0  0  0  0  0  0  0  0  0
    6.4662   -1.1495    0.0000 C   0  0  0  0  0  0  0  0  0  0  0  0
    4.2365    0.0835    0.0000 C   0  0  0  0  0  0  0  0  0  0  0  0
    7.2732   -1.3210    0.0000 C   0  0  0  0  0  0  0  0  0  0  0  0
    4.9509    1.3210    0.0000 C   0  0  0  0  0  0  0  0  0  0  0  0
    7.6857   -0.6066    0.0000 C   0  0  0  0  0  0  0  0  0  0  0  0
    2.8075    0.0835    0.0000 C   0  0  0  0  0  0  0  0  0  0  0  0
  1  8  1  0  0  0  0
  1 14  1  0  0  0  0
  2 15  2  0  0  0  0
  3  7  2  0  0  0  0
  3 11  1  0  0  0  0
  4 11  1  0  0  0  0
  4 15  1  0  0  0  0
  5 11  2  0  0  0  0
  5 13  1  0  0  0  0
  6 15  1  0  0  0  0
  7  8  1  0  0  0  0
  7  9  1  0  0  0  0
  8 10  2  0  0  0  0
  9 13  2  0  0  0  0
 10 12  1  0  0  0  0
 12 14  2  0  0  0  0
M  END
> <From>
www.bindingDB.org

> <BindingDB Reactant_set_id>
95252

> <Ligand InChI>
InChI=1S/C9H8N4S2/c10-8(14)13-9-11-4-3-6(12-9)7-2-1-5-15-7/h1-5H,(H3,10,11,12,13,14)

> <Ligand InChI Key>
POTPPCPRBDFTRJ-UHFFFAOYSA-N

> <BindingDB MonomerID>
51364

> <BindingDB Ligand Name>
(4-thiophen-2-yl-2-pyrimidinyl)thiourea::(4-thiophen-2-ylpyrimidin-2-yl)thiourea::1-(4-thiophen-2-ylpyrimidin-2-yl)thiourea::MLS000763979::N-[4-(2-thienyl)-2-pyrimidinyl]thiourea::SMR000336116::[4-(2-thienyl)pyrimidin-2-yl]thiourea::cid_1482759

> <Target Name>
DNA repair protein RAD51 homolog 1

> <Target Source Organism According to Curator or DataSource>
Homo sapiens

> <Ki (nM)>


> <IC50 (nM)>
 53000

> <Kd (nM)>


> <EC50 (nM)>


> <kon (M-1-s-1)>


> <koff (s-1)>


> <pH>


> <Temp C>


> <Curation/DataSource>
PubChem

> <Article DOI>


> <BindingDB Entry DOI>
10.7270/Q2QN6558

> <PMID>


> <PubChem AID>
aid1437

> <Patent Number>


> <Authors>
PubChem, PC

> <Date of publication>
11/25/2008

> <Date in BindingDB>
5/31/2011

> <Institution>
PCMD

> <Link to Ligand in BindingDB>
http://www.bindingdb.org/bind/chemsearch/marvin/MolStructure.jsp?monomerid=51364

> <Link to Ligand-Target Pair in BindingDB>
http://www.bindingdb.org/jsp/dbsearch/PrimarySearch_ki.jsp?energyterm=kJ/mole&tag=pol&polymerid=4676&target=DNA+repair+protein+RAD51+homolog+1&column=ki&startPg=0&Increment=50&submit=Search

> <Link to Ligand-Target Pair in BindingDB>
http://www.bindingdb.org/jsp/dbsearch/PrimarySearch_ki.jsp?energyterm=kJ/mole&tag=r21&monomerid=51364&enzyme=DNA+repair+protein+RAD51+homolog+1&column=ki&startPg=0&Increment=50&submit=Search

> <Ligand HET ID in PDB>


> <PDB ID(s) for Ligand-Target Complex>


> <PubChem CID of Ligand>
1482759

> <PubChem SID of Ligand>
252631587

> <ChEBI ID of Ligand>


> <ChEMBL ID of Ligand>


> <DrugBank ID of Ligand>


> <IUPHAR_GRAC ID of Ligand>


> <KEGG ID of Ligand>


> <ZINC ID of Ligand>
ZINC01117667

> <Number of Protein Chains in Target (bigger than 1 implies a multichain complex)>
1

> <BindingDB Target Chain Sequence>
MAMQMQLEANADTSVEEESFGPQPISRLEQCGINANDVKKLEEAGFHTVEAVAYAPKKELINIKGISEAKADKILAEAAKLVPMGFTTATEFHQRRSEIIQITTGSKELDKLLQGGIETGSITEMFGEFRTGKTQICHTLAVTCQLPIDRGGGEGKAMYIDTEGTFRPERLLAVAERYGLSGSDVLDNVAYARAFNTDHQTQLLYQASAMMVESRYALLIVDSATALYRTDYSGRGELSARQMHLARFLRMLLRLADEFGVAVVITNQVVAQVDGAAMFAADPKKPIGGNIIAHASTTRLYLRKGRGETRICKIYDSPCLPEAEAMFAINADGVGDAKD

> <PDB ID(s) of Target Chain>
1N0W,5JZC,5NP7,5NWL,8BQ2,8BR2,8BSC

> <UniProt (SwissProt) Recommended Name of Target Chain>
DNA repair protein RAD51 homolog 1

> <UniProt (SwissProt) Entry Name of Target Chain>
RAD51_HUMAN

> <UniProt (SwissProt) Primary ID of Target Chain>
Q06609

> <UniProt (SwissProt) Secondary ID(s) of Target Chain>
B0FXP0 B2R8T6 Q6FHX9 Q6ZNA8 Q9BV60

> <UniProt (SwissProt) Alternative ID(s) of Target Chain>


> <UniProt (TrEMBL) Submitted Name of Target Chain>


> <UniProt (TrEMBL) Entry Name of Target Chain>


> <UniProt (TrEMBL) Primary ID of Target Chain>


> <UniProt (TrEMBL) Secondary ID(s) of Target Chain>


> <UniProt (TrEMBL) Alternative ID(s) of Target Chain>


$$$$
182785
  Mrv0541 11251416042D          

 25 28  0  0  0  0            999 V2000
    5.2918   -0.1982    0.0000 N   0  0  0  0  0  0  0  0  0  0  0  0
    8.1304    1.4846    0.0000 N   0  0  0  0  0  0  0  0  0  0  0  0
    5.3013   -2.7304    0.0000 N   0  0  0  0  0  0  0  0  0  0  0  0
    4.5639   -1.4643    0.0000 C   0  0  0  0  0  0  0  0  0  0  0  0
    5.3013   -1.0231    0.0000 C   0  0  0  0  0  0  0  0  0  0  0  0
    4.5639   -2.2892    0.0000 C   0  0  0  0  0  0  0  0  0  0  0  0
    3.1349   -1.4643    0.0000 C   0  0  0  0  0  0  0  0  0  0  0  0
    3.1349   -2.2892    0.0000 C   0  0  0  0  0  0  0  0  0  0  0  0
    3.8494   -1.0518    0.0000 C   0  0  0  0  0  0  0  0  0  0  0  0
    8.1208    2.3096    0.0000 C   0  0  0  0  0  0  0  0  0  0  0  0
    3.8494   -2.7017    0.0000 C   0  0  0  0  0  0  0  0  0  0  0  0
    6.0014    0.2225    0.0000 C   0  0  0  0  0  0  0  0  0  0  0  0
    7.4207    1.0639    0.0000 C   0  0  0  0  0  0  0  0  0  0  0  0
    6.0488   -1.4471    0.0000 C   0  0  0  0  0  0  0  0  0  0  0  0
    2.3975   -1.0231    0.0000 C   0  0  0  0  0  0  0  0  0  0  0  0
    2.3975   -2.7304    0.0000 C   0  0  0  0  0  0  0  0  0  0  0  0
    5.9919    1.0474    0.0000 C   0  0  0  0  0  0  0  0  0  0  0  0
    6.7206   -0.1817    0.0000 C   0  0  0  0  0  0  0  0  0  0  0  0
    6.7015    1.4681    0.0000 C   0  0  0  0  0  0  0  0  0  0  0  0
    7.4303    0.2390    0.0000 C   0  0  0  0  0  0  0  0  0  0  0  0
    8.8304    2.7304    0.0000 C   0  0  0  0  0  0  0  0  0  0  0  0
    7.4017    2.7138    0.0000 C   0  0  0  0  0  0  0  0  0  0  0  0
    6.0488   -2.3064    0.0000 C   0  0  0  0  0  0  0  0  0  0  0  0
    1.6500   -1.4471    0.0000 C   0  0  0  0  0  0  0  0  0  0  0  0
    1.6500   -2.3064    0.0000 C   0  0  0  0  0  0  0  0  0  0  0  0
  1  5  1  0  0  0  0
  1 12  1  0  0  0  0
  2 10  1  0  0  0  0
  2 13  1  0  0  0  0
  3  6  2  0  0  0  0
  3 23  1  0  0  0  0
  4  5  2  0  0  0  0
  4  6  1  0  0  0  0
  4  9  1  0  0  0  0
  5 14  1  0  0  0  0
  6 11  1  0  0  0  0
  7  8  1  0  0  0  0
  7  9  2  0  0  0  0
  7 15  1  0  0  0  0
  8 11  2  0  0  0  0
  8 16  1  0  0  0  0
 10 21  1  0  0  0  0
 10 22  1  0  0  0  0
 12 17  2  0  0  0  0
 12 18  1  0  0  0  0
 13 19  2  0  0  0  0
 13 20  1  0  0  0  0
 14 23  2  0  0  0  0
 15 24  2  0  0  0  0
 16 25  2  0  0  0  0
 17 19  1  0  0  0  0
 18 20  2  0  0  0  0
 24 25  1  0  0  0  0
M  END
> <From>
www.bindingDB.org

> <BindingDB Reactant_set_id>
95253

> <Ligand InChI>
InChI=1S/C22H21N3/c1-15(2)24-18-7-9-19(10-8-18)25-21-11-12-23-22-14-17-6-4-3-5-16(17)13-20(21)22/h3-15,24H,1-2H3,(H,23,25)

> <Ligand InChI Key>
ZKHLFXGNCPJHKW-UHFFFAOYSA-N

> <BindingDB MonomerID>
51365

> <BindingDB Ligand Name>
1-N-benzo[g]quinolin-4-yl-4-N-propan-2-ylbenzene-1,4-diamine::MLS000766754::N-benzo[g]quinolin-4-yl-N&#39;-isopropylbenzene-1,4-diamine::N1-(4-benzo[g]quinolinyl)-N4-propan-2-ylbenzene-1,4-diamine::N1-benzo[g]quinolin-4-yl-N4-propan-2-yl-benzene-1,4-diamine::SMR000339650::US9211296, Table 7, Compd: 7::benzo[g]quinolin-4-yl-[4-(isopropylamino)phenyl]amine::cid_182785

> <Target Name>
DNA repair protein RAD51 homolog 1

> <Target Source Organism According to Curator or DataSource>
Homo sapiens

> <Ki (nM)>


> <IC50 (nM)>
 53000

> <Kd (nM)>


> <EC50 (nM)>


> <kon (M-1-s-1)>


> <koff (s-1)>


> <pH>


> <Temp C>


> <Curation/DataSource>
PubChem

> <Article DOI>


> <BindingDB Entry DOI>
10.7270/Q2QN6558

> <PMID>


> <PubChem AID>
aid1437

> <Patent Number>


> <Authors>
PubChem, PC

> <Date of publication>
11/25/2008

> <Date in BindingDB>
5/31/2011

> <Institution>
PCMD

> <Link to Ligand in BindingDB>
http://www.bindingdb.org/bind/chemsearch/marvin/MolStructure.jsp?monomerid=51365

> <Link to Ligand-Target Pair in BindingDB>
http://www.bindingdb.org/jsp/dbsearch/PrimarySearch_ki.jsp?energyterm=kJ/mole&tag=pol&polymerid=4676&target=DNA+repair+protein+RAD51+homolog+1&column=ki&startPg=0&Increment=50&submit=Search

> <Link to Ligand-Target Pair in BindingDB>
http://www.bindingdb.org/jsp/dbsearch/PrimarySearch_ki.jsp?energyterm=kJ/mole&tag=r21&monomerid=51365&enzyme=DNA+repair+protein+RAD51+homolog+1&column=ki&startPg=0&Increment=50&submit=Search

> <Ligand HET ID in PDB>


> <PDB ID(s) for Ligand-Target Complex>


> <PubChem CID of Ligand>
182785

> <PubChem SID of Ligand>
252631588

> <ChEBI ID of Ligand>


> <ChEMBL ID of Ligand>


> <DrugBank ID of Ligand>


> <IUPHAR_GRAC ID of Ligand>


> <KEGG ID of Ligand>


> <ZINC ID of Ligand>
ZINC13816647

> <Number of Protein Chains in Target (bigger than 1 implies a multichain complex)>
1

> <BindingDB Target Chain Sequence>
MAMQMQLEANADTSVEEESFGPQPISRLEQCGINANDVKKLEEAGFHTVEAVAYAPKKELINIKGISEAKADKILAEAAKLVPMGFTTATEFHQRRSEIIQITTGSKELDKLLQGGIETGSITEMFGEFRTGKTQICHTLAVTCQLPIDRGGGEGKAMYIDTEGTFRPERLLAVAERYGLSGSDVLDNVAYARAFNTDHQTQLLYQASAMMVESRYALLIVDSATALYRTDYSGRGELSARQMHLARFLRMLLRLADEFGVAVVITNQVVAQVDGAAMFAADPKKPIGGNIIAHASTTRLYLRKGRGETRICKIYDSPCLPEAEAMFAINADGVGDAKD

> <PDB ID(s) of Target Chain>
1N0W,5JZC,5NP7,5NWL,8BQ2,8BR2,8BSC

> <UniProt (SwissProt) Recommended Name of Target Chain>
DNA repair protein RAD51 homolog 1

> <UniProt (SwissProt) Entry Name of Target Chain>
RAD51_HUMAN

> <UniProt (SwissProt) Primary ID of Target Chain>
Q06609

> <UniProt (SwissProt) Secondary ID(s) of Target Chain>
B0FXP0 B2R8T6 Q6FHX9 Q6ZNA8 Q9BV60

> <UniProt (SwissProt) Alternative ID(s) of Target Chain>


> <UniProt (TrEMBL) Submitted Name of Target Chain>


> <UniProt (TrEMBL) Entry Name of Target Chain>


> <UniProt (TrEMBL) Primary ID of Target Chain>


> <UniProt (TrEMBL) Secondary ID(s) of Target Chain>


> <UniProt (TrEMBL) Alternative ID(s) of Target Chain>


$$$$
2411794
  Mrv0541 11251416042D          

 28 30  0  0  0  0            999 V2000
    4.1489    2.8173    0.0000 S   0  0  0  0  0  0  0  0  0  0  0  0
    4.8200    1.3099    0.0000 O   0  0  0  0  0  0  0  0  0  0  0  0
    2.3876   -4.2533    0.0000 O   0  0  0  0  0  0  0  0  0  0  0  0
    3.8166   -4.2533    0.0000 O   0  0  0  0  0  0  0  0  0  0  0  0
    5.1187    4.1522    0.0000 O   0  5  0  0  0  0  0  0  0  0  0  0
    3.1021   -0.5408    0.0000 N   0  0  0  0  0  0  0  0  0  0  0  0
    4.2983    4.2384    0.0000 N   0  3  0  0  0  0  0  0  0  0  0  0
    3.7695   -0.0559    0.0000 C   0  0  0  0  0  0  0  0  0  0  0  0
    2.4347   -0.0559    0.0000 C   0  0  0  0  0  0  0  0  0  0  0  0
    3.5146    0.7287    0.0000 C   0  0  0  0  0  0  0  0  0  0  0  0
    2.6896    0.7287    0.0000 C   0  0  0  0  0  0  0  0  0  0  0  0
    3.1021   -1.3658    0.0000 C   0  0  0  0  0  0  0  0  0  0  0  0
    4.5542   -0.3109    0.0000 C   0  0  0  0  0  0  0  0  0  0  0  0
    1.6500   -0.3109    0.0000 C   0  0  0  0  0  0  0  0  0  0  0  0
    3.9995    1.3962    0.0000 C   0  0  0  0  0  0  0  0  0  0  0  0
    2.3876   -1.7783    0.0000 C   0  0  0  0  0  0  0  0  0  0  0  0
    3.8166   -1.7783    0.0000 C   0  0  0  0  0  0  0  0  0  0  0  0
    3.6639    2.1499    0.0000 C   0  0  0  0  0  0  0  0  0  0  0  0
    2.3876   -2.6033    0.0000 C   0  0  0  0  0  0  0  0  0  0  0  0
    3.8166   -2.6033    0.0000 C   0  0  0  0  0  0  0  0  0  0  0  0
    3.1021   -3.0158    0.0000 C   0  0  0  0  0  0  0  0  0  0  0  0
    3.1021   -3.8408    0.0000 C   0  0  0  0  0  0  0  0  0  0  0  0
    3.8133    3.5709    0.0000 C   0  0  0  0  0  0  0  0  0  0  0  0
    2.9928    3.6572    0.0000 C   0  0  0  0  0  0  0  0  0  0  0  0
    3.9627    4.9921    0.0000 C   0  0  0  0  0  0  0  0  0  0  0  0
    2.6573    4.4109    0.0000 C   0  0  0  0  0  0  0  0  0  0  0  0
    3.1422    5.0783    0.0000 C   0  0  0  0  0  0  0  0  0  0  0  0
    2.3876   -5.0783    0.0000 C   0  0  0  0  0  0  0  0  0  0  0  0
  1 18  1  0  0  0  0
  1 23  1  0  0  0  0
  2 15  2  0  0  0  0
  3 22  1  0  0  0  0
  3 28  1  0  0  0  0
  4 22  2  0  0  0  0
  5  7  1  0  0  0  0
  6  8  1  0  0  0  0
  6  9  1  0  0  0  0
  6 12  1  0  0  0  0
  7 23  2  0  0  0  0
  7 25  1  0  0  0  0
  8 10  2  0  0  0  0
  8 13  1  0  0  0  0
  9 11  2  0  0  0  0
  9 14  1  0  0  0  0
 10 11  1  0  0  0  0
 10 15  1  0  0  0  0
 12 16  2  0  0  0  0
 12 17  1  0  0  0  0
 15 18  1  0  0  0  0
 16 19  1  0  0  0  0
 17 20  2  0  0  0  0
 19 21  2  0  0  0  0
 20 21  1  0  0  0  0
 21 22  1  0  0  0  0
 23 24  1  0  0  0  0
 24 26  2  0  0  0  0
 25 27  2  0  0  0  0
 26 27  1  0  0  0  0
M  CHG  2   5  -1   7   1
M  END
> <From>
www.bindingDB.org

> <BindingDB Reactant_set_id>
95254

> <Ligand InChI>
InChI=1S/C21H20N2O4S/c1-14-12-18(19(24)13-28-20-6-4-5-11-22(20)26)15(2)23(14)17-9-7-16(8-10-17)21(25)27-3/h4-12H,13H2,1-3H3

> <Ligand InChI Key>
WDTOIGNDNRFXAC-UHFFFAOYSA-N

> <BindingDB MonomerID>
51366

> <BindingDB Ligand Name>
4-[2,5-dimethyl-3-[2-[(1-oxido-2-pyridin-1-iumyl)thio]-1-oxoethyl]-1-pyrrolyl]benzoic acid methyl ester::4-[2,5-dimethyl-3-[2-[(1-oxidopyridin-1-ium-2-yl)thio]acetyl]pyrrol-1-yl]benzoic acid methyl ester::MLS000770477::SMR000343767::cid_2411794::methyl 4-[2,5-dimethyl-3-[2-(1-oxidanidylpyridin-1-ium-2-yl)sulfanylethanoyl]pyrrol-1-yl]benzoate::methyl 4-[2,5-dimethyl-3-[2-(1-oxidopyridin-1-ium-2-yl)sulfanylacetyl]pyrrol-1-yl]benzoate

> <Target Name>
DNA repair protein RAD51 homolog 1

> <Target Source Organism According to Curator or DataSource>
Homo sapiens

> <Ki (nM)>


> <IC50 (nM)>
 53000

> <Kd (nM)>


> <EC50 (nM)>


> <kon (M-1-s-1)>


> <koff (s-1)>


> <pH>


> <Temp C>


> <Curation/DataSource>
PubChem

> <Article DOI>


> <BindingDB Entry DOI>
10.7270/Q2QN6558

> <PMID>


> <PubChem AID>
aid1437

> <Patent Number>


> <Authors>
PubChem, PC

> <Date of publication>
11/25/2008

> <Date in BindingDB>
5/31/2011

> <Institution>
PCMD

> <Link to Ligand in BindingDB>
http://www.bindingdb.org/bind/chemsearch/marvin/MolStructure.jsp?monomerid=51366

> <Link to Ligand-Target Pair in BindingDB>
http://www.bindingdb.org/jsp/dbsearch/PrimarySearch_ki.jsp?energyterm=kJ/mole&tag=pol&polymerid=4676&target=DNA+repair+protein+RAD51+homolog+1&column=ki&startPg=0&Increment=50&submit=Search

> <Link to Ligand-Target Pair in BindingDB>
http://www.bindingdb.org/jsp/dbsearch/PrimarySearch_ki.jsp?energyterm=kJ/mole&tag=r21&monomerid=51366&enzyme=DNA+repair+protein+RAD51+homolog+1&column=ki&startPg=0&Increment=50&submit=Search

> <Ligand HET ID in PDB>


> <PDB ID(s) for Ligand-Target Complex>


> <PubChem CID of Ligand>
2411794

> <PubChem SID of Ligand>
252631589

> <ChEBI ID of Ligand>


> <ChEMBL ID of Ligand>


> <DrugBank ID of Ligand>


> <IUPHAR_GRAC ID of Ligand>


> <KEGG ID of Ligand>


> <ZINC ID of Ligand>
ZINC17654274

> <Number of Protein Chains in Target (bigger than 1 implies a multichain complex)>
1

> <BindingDB Target Chain Sequence>
MAMQMQLEANADTSVEEESFGPQPISRLEQCGINANDVKKLEEAGFHTVEAVAYAPKKELINIKGISEAKADKILAEAAKLVPMGFTTATEFHQRRSEIIQITTGSKELDKLLQGGIETGSITEMFGEFRTGKTQICHTLAVTCQLPIDRGGGEGKAMYIDTEGTFRPERLLAVAERYGLSGSDVLDNVAYARAFNTDHQTQLLYQASAMMVESRYALLIVDSATALYRTDYSGRGELSARQMHLARFLRMLLRLADEFGVAVVITNQVVAQVDGAAMFAADPKKPIGGNIIAHASTTRLYLRKGRGETRICKIYDSPCLPEAEAMFAINADGVGDAKD

> <PDB ID(s) of Target Chain>
1N0W,5JZC,5NP7,5NWL,8BQ2,8BR2,8BSC

> <UniProt (SwissProt) Recommended Name of Target Chain>
DNA repair protein RAD51 homolog 1

> <UniProt (SwissProt) Entry Name of Target Chain>
RAD51_HUMAN

> <UniProt (SwissProt) Primary ID of Target Chain>
Q06609

> <UniProt (SwissProt) Secondary ID(s) of Target Chain>
B0FXP0 B2R8T6 Q6FHX9 Q6ZNA8 Q9BV60

> <UniProt (SwissProt) Alternative ID(s) of Target Chain>


> <UniProt (TrEMBL) Submitted Name of Target Chain>


> <UniProt (TrEMBL) Entry Name of Target Chain>


> <UniProt (TrEMBL) Primary ID of Target Chain>


> <UniProt (TrEMBL) Secondary ID(s) of Target Chain>


> <UniProt (TrEMBL) Alternative ID(s) of Target Chain>


$$$$
6364517
  Mrv0541 11251415322D          

 26 29  0  0  0  0            999 V2000
    2.6526    5.8726    0.0000 S   0  0  0  0  0  0  0  0  0  0  0  0
    5.2749    4.3586    0.0000 S   0  0  0  0  0  0  0  0  0  0  0  0
    2.6526    7.2004    0.0000 N   0  3  0  0  0  0  0  0  0  0  0  0
    6.4248    5.0225    0.0000 N   0  0  0  0  0  0  0  0  0  0  0  0
    1.8720    6.9490    0.0000 C   0  0  0  0  0  0  0  0  0  0  0  0
    6.5974    4.2207    0.0000 C   0  0  0  0  0  0  0  0  0  0  0  0
    3.1341    6.5365    0.0000 C   0  0  0  0  0  0  0  0  0  0  0  0
    5.6091    5.1075    0.0000 C   0  0  0  0  0  0  0  0  0  0  0  0
    2.9089    7.9846    0.0000 C   0  0  0  0  0  0  0  0  0  0  0  0
    6.9759    5.6365    0.0000 C   0  0  0  0  0  0  0  0  0  0  0  0
    1.8720    6.1239    0.0000 C   0  0  0  0  0  0  0  0  0  0  0  0
    5.8830    3.8082    0.0000 C   0  0  0  0  0  0  0  0  0  0  0  0
    4.3716    5.8220    0.0000 C   0  0  0  0  0  0  0  0  0  0  0  0
    3.9591    6.5365    0.0000 C   0  0  0  0  0  0  0  0  0  0  0  0
    5.1966    5.8220    0.0000 C   0  0  0  0  0  0  0  0  0  0  0  0
    1.1575    7.3615    0.0000 C   0  0  0  0  0  0  0  0  0  0  0  0
    7.3120    3.8082    0.0000 C   0  0  0  0  0  0  0  0  0  0  0  0
    1.1575    5.7114    0.0000 C   0  0  0  0  0  0  0  0  0  0  0  0
    5.8830    2.9832    0.0000 C   0  0  0  0  0  0  0  0  0  0  0  0
    2.3579    8.5987    0.0000 C   0  0  0  0  0  0  0  0  0  0  0  0
    7.7831    5.4664    0.0000 C   0  0  0  0  0  0  0  0  0  0  0  0
    3.9591    5.1075    0.0000 C   0  0  0  0  0  0  0  0  0  0  0  0
    0.4430    6.9490    0.0000 C   0  0  0  0  0  0  0  0  0  0  0  0
    7.3120    2.9832    0.0000 C   0  0  0  0  0  0  0  0  0  0  0  0
    0.4430    6.1239    0.0000 C   0  0  0  0  0  0  0  0  0  0  0  0
    6.5974    2.5707    0.0000 C   0  0  0  0  0  0  0  0  0  0  0  0
  1  7  1  0  0  0  0
  1 11  1  0  0  0  0
  2  8  1  0  0  0  0
  2 12  1  0  0  0  0
  3  5  1  0  0  0  0
  3  7  2  0  0  0  0
  3  9  1  0  0  0  0
  4  6  1  0  0  0  0
  4  8  1  0  0  0  0
  4 10  1  0  0  0  0
  5 11  1  0  0  0  0
  5 16  2  0  0  0  0
  6 12  2  0  0  0  0
  6 17  1  0  0  0  0
  7 14  1  0  0  0  0
  8 15  2  0  0  0  0
  9 20  1  0  0  0  0
 10 21  1  0  0  0  0
 11 18  2  0  0  0  0
 12 19  1  0  0  0  0
 13 14  2  0  0  0  0
 13 15  1  0  0  0  0
 13 22  1  0  0  0  0
 16 23  1  0  0  0  0
 17 24  2  0  0  0  0
 18 25  1  0  0  0  0
 19 26  2  0  0  0  0
 23 25  2  0  0  0  0
 24 26  1  0  0  0  0
M  CHG  1   3   1
M  END
> <From>
www.bindingDB.org

> <BindingDB Reactant_set_id>
95255

> <Ligand InChI>
InChI=1S/C22H23N2S2/c1-4-23-17-10-6-8-12-19(17)25-21(23)14-16(3)15-22-24(5-2)18-11-7-9-13-20(18)26-22/h6-15H,4-5H2,1-3H3/q+1

> <Ligand InChI Key>
DGBHUSPLAMIWPQ-UHFFFAOYSA-N

> <BindingDB MonomerID>
32329

> <BindingDB Ligand Name>
(2Z)-3-ethyl-2-[(E)-3-(3-ethyl-1,3-benzothiazol-3-ium-2-yl)-2-methyl-prop-2-enylidene]-1,3-benzothiazole;iodide::(2Z)-3-ethyl-2-[(E)-3-(3-ethyl-1,3-benzothiazol-3-ium-2-yl)-2-methylprop-2-enylidene]-1,3-benzothiazole;iodide::Cyanines, 1::MLS001018610::SMR000354813::cid_6364517

> <Target Name>
DNA repair protein RAD51 homolog 1

> <Target Source Organism According to Curator or DataSource>
Homo sapiens

> <Ki (nM)>


> <IC50 (nM)>
 12300

> <Kd (nM)>


> <EC50 (nM)>


> <kon (M-1-s-1)>


> <koff (s-1)>


> <pH>


> <Temp C>


> <Curation/DataSource>
PubChem

> <Article DOI>


> <BindingDB Entry DOI>
10.7270/Q2QN6558

> <PMID>


> <PubChem AID>
aid1437

> <Patent Number>


> <Authors>
PubChem, PC

> <Date of publication>
11/25/2008

> <Date in BindingDB>
5/31/2011

> <Institution>
PCMD

> <Link to Ligand in BindingDB>
http://www.bindingdb.org/bind/chemsearch/marvin/MolStructure.jsp?monomerid=32329

> <Link to Ligand-Target Pair in BindingDB>
http://www.bindingdb.org/jsp/dbsearch/PrimarySearch_ki.jsp?energyterm=kJ/mole&tag=pol&polymerid=4676&target=DNA+repair+protein+RAD51+homolog+1&column=ki&startPg=0&Increment=50&submit=Search

> <Link to Ligand-Target Pair in BindingDB>
http://www.bindingdb.org/jsp/dbsearch/PrimarySearch_ki.jsp?energyterm=kJ/mole&tag=r21&monomerid=32329&enzyme=DNA+repair+protein+RAD51+homolog+1&column=ki&startPg=0&Increment=50&submit=Search

> <Ligand HET ID in PDB>


> <PDB ID(s) for Ligand-Target Complex>


> <PubChem CID of Ligand>
5474842

> <PubChem SID of Ligand>
252615768

> <ChEBI ID of Ligand>


> <ChEMBL ID of Ligand>


> <DrugBank ID of Ligand>


> <IUPHAR_GRAC ID of Ligand>


> <KEGG ID of Ligand>


> <ZINC ID of Ligand>
ZINC01627076

> <Number of Protein Chains in Target (bigger than 1 implies a multichain complex)>
1

> <BindingDB Target Chain Sequence>
MAMQMQLEANADTSVEEESFGPQPISRLEQCGINANDVKKLEEAGFHTVEAVAYAPKKELINIKGISEAKADKILAEAAKLVPMGFTTATEFHQRRSEIIQITTGSKELDKLLQGGIETGSITEMFGEFRTGKTQICHTLAVTCQLPIDRGGGEGKAMYIDTEGTFRPERLLAVAERYGLSGSDVLDNVAYARAFNTDHQTQLLYQASAMMVESRYALLIVDSATALYRTDYSGRGELSARQMHLARFLRMLLRLADEFGVAVVITNQVVAQVDGAAMFAADPKKPIGGNIIAHASTTRLYLRKGRGETRICKIYDSPCLPEAEAMFAINADGVGDAKD

> <PDB ID(s) of Target Chain>
1N0W,5JZC,5NP7,5NWL,8BQ2,8BR2,8BSC

> <UniProt (SwissProt) Recommended Name of Target Chain>
DNA repair protein RAD51 homolog 1

> <UniProt (SwissProt) Entry Name of Target Chain>
RAD51_HUMAN

> <UniProt (SwissProt) Primary ID of Target Chain>
Q06609

> <UniProt (SwissProt) Secondary ID(s) of Target Chain>
B0FXP0 B2R8T6 Q6FHX9 Q6ZNA8 Q9BV60

> <UniProt (SwissProt) Alternative ID(s) of Target Chain>


> <UniProt (TrEMBL) Submitted Name of Target Chain>


> <UniProt (TrEMBL) Entry Name of Target Chain>


> <UniProt (TrEMBL) Primary ID of Target Chain>


> <UniProt (TrEMBL) Secondary ID(s) of Target Chain>


> <UniProt (TrEMBL) Alternative ID(s) of Target Chain>


$$$$
2852905
  Mrv0541 11251416042D          

 15 16  0  0  1  0            999 V2000
    1.6500   -0.5991    0.0000 Br  0  0  0  0  0  0  0  0  0  0  0  0
    6.4789    1.0705    0.0000 O   0  0  0  0  0  0  0  0  0  0  0  0
    3.1022   -0.8291    0.0000 O   0  0  0  0  0  0  0  0  0  0  0  0
    4.7258   -1.4061    0.0000 O   0  0  0  0  0  0  0  0  0  0  0  0
    5.1673   -0.0470    0.0000 N   0  0  0  0  0  0  0  0  0  0  0  0
    6.5651    0.2501    0.0000 C   0  0  0  0  0  0  0  0  0  0  0  0
    7.3720    0.0785    0.0000 C   0  0  0  0  0  0  0  0  0  0  0  0
    7.7845    0.7930    0.0000 C   0  0  0  0  0  0  0  0  0  0  0  0
    7.2325    1.4061    0.0000 C   0  0  0  0  0  0  0  0  0  0  0  0
    5.9520   -0.3020    0.0000 C   0  0  0  0  0  0  0  0  0  0  0  0
    4.5543   -0.5991    0.0000 C   0  0  0  0  0  0  0  0  0  0  0  0
    3.7696   -0.3442    0.0000 C   0  0  0  0  0  0  0  0  0  0  0  0
    3.5147    0.4405    0.0000 C   0  0  0  0  0  0  0  0  0  0  0  0
    2.6896    0.4405    0.0000 C   0  0  0  0  0  0  0  0  0  0  0  0
    2.4347   -0.3442    0.0000 C   0  0  0  0  0  0  0  0  0  0  0  0
  1 15  1  0  0  0  0
  2  6  1  0  0  0  0
  2  9  1  0  0  0  0
  3 12  1  0  0  0  0
  3 15  1  0  0  0  0
  4 11  2  0  0  0  0
  5 10  1  0  0  0  0
  5 11  1  0  0  0  0
  6  7  1  0  0  0  0
  6 10  1  0  0  0  0
  7  8  1  0  0  0  0
  8  9  1  0  0  0  0
 11 12  1  0  0  0  0
 12 13  2  0  0  0  0
 13 14  1  0  0  0  0
 14 15  2  0  0  0  0
M  END
> <From>
www.bindingDB.org

> <BindingDB Reactant_set_id>
95256

> <Ligand InChI>
InChI=1S/C10H12BrNO3/c11-9-4-3-8(15-9)10(13)12-6-7-2-1-5-14-7/h3-4,7H,1-2,5-6H2,(H,12,13)

> <Ligand InChI Key>
VCZOVYCWNDLMIC-UHFFFAOYSA-N

> <BindingDB MonomerID>
51367

> <BindingDB Ligand Name>
5-bromanyl-N-(oxolan-2-ylmethyl)furan-2-carboxamide::5-bromo-N-(2-oxolanylmethyl)-2-furancarboxamide::5-bromo-N-(oxolan-2-ylmethyl)furan-2-carboxamide::5-bromo-N-(tetrahydrofurfuryl)-2-furamide::MLS001005886::SMR000349050::cid_2852905

> <Target Name>
DNA repair protein RAD51 homolog 1

> <Target Source Organism According to Curator or DataSource>
Homo sapiens

> <Ki (nM)>


> <IC50 (nM)>
 53000

> <Kd (nM)>


> <EC50 (nM)>


> <kon (M-1-s-1)>


> <koff (s-1)>


> <pH>


> <Temp C>


> <Curation/DataSource>
PubChem

> <Article DOI>


> <BindingDB Entry DOI>
10.7270/Q2QN6558

> <PMID>


> <PubChem AID>
aid1437

> <Patent Number>


> <Authors>
PubChem, PC

> <Date of publication>
11/25/2008

> <Date in BindingDB>
5/31/2011

> <Institution>
PCMD

> <Link to Ligand in BindingDB>
http://www.bindingdb.org/bind/chemsearch/marvin/MolStructure.jsp?monomerid=51367

> <Link to Ligand-Target Pair in BindingDB>
http://www.bindingdb.org/jsp/dbsearch/PrimarySearch_ki.jsp?energyterm=kJ/mole&tag=pol&polymerid=4676&target=DNA+repair+protein+RAD51+homolog+1&column=ki&startPg=0&Increment=50&submit=Search

> <Link to Ligand-Target Pair in BindingDB>
http://www.bindingdb.org/jsp/dbsearch/PrimarySearch_ki.jsp?energyterm=kJ/mole&tag=r21&monomerid=51367&enzyme=DNA+repair+protein+RAD51+homolog+1&column=ki&startPg=0&Increment=50&submit=Search

> <Ligand HET ID in PDB>


> <PDB ID(s) for Ligand-Target Complex>


> <PubChem CID of Ligand>
2852905

> <PubChem SID of Ligand>
252631590

> <ChEBI ID of Ligand>


> <ChEMBL ID of Ligand>


> <DrugBank ID of Ligand>


> <IUPHAR_GRAC ID of Ligand>


> <KEGG ID of Ligand>


> <ZINC ID of Ligand>
ZINC03938704

> <Number of Protein Chains in Target (bigger than 1 implies a multichain complex)>
1

> <BindingDB Target Chain Sequence>
MAMQMQLEANADTSVEEESFGPQPISRLEQCGINANDVKKLEEAGFHTVEAVAYAPKKELINIKGISEAKADKILAEAAKLVPMGFTTATEFHQRRSEIIQITTGSKELDKLLQGGIETGSITEMFGEFRTGKTQICHTLAVTCQLPIDRGGGEGKAMYIDTEGTFRPERLLAVAERYGLSGSDVLDNVAYARAFNTDHQTQLLYQASAMMVESRYALLIVDSATALYRTDYSGRGELSARQMHLARFLRMLLRLADEFGVAVVITNQVVAQVDGAAMFAADPKKPIGGNIIAHASTTRLYLRKGRGETRICKIYDSPCLPEAEAMFAINADGVGDAKD

> <PDB ID(s) of Target Chain>
1N0W,5JZC,5NP7,5NWL,8BQ2,8BR2,8BSC

> <UniProt (SwissProt) Recommended Name of Target Chain>
DNA repair protein RAD51 homolog 1

> <UniProt (SwissProt) Entry Name of Target Chain>
RAD51_HUMAN

> <UniProt (SwissProt) Primary ID of Target Chain>
Q06609

> <UniProt (SwissProt) Secondary ID(s) of Target Chain>
B0FXP0 B2R8T6 Q6FHX9 Q6ZNA8 Q9BV60

> <UniProt (SwissProt) Alternative ID(s) of Target Chain>


> <UniProt (TrEMBL) Submitted Name of Target Chain>


> <UniProt (TrEMBL) Entry Name of Target Chain>


> <UniProt (TrEMBL) Primary ID of Target Chain>


> <UniProt (TrEMBL) Secondary ID(s) of Target Chain>


> <UniProt (TrEMBL) Alternative ID(s) of Target Chain>


$$$$
2388246
  Mrv0541 11251416042D          

 27 29  0  0  0  0            999 V2000
    5.9370   -0.0290    0.0000 S   0  0  0  0  0  0  0  0  0  0  0  0
    2.3645   -2.9166    0.0000 O   0  0  0  0  0  0  0  0  0  0  0  0
    5.9370   -1.6791    0.0000 O   0  0  0  0  0  0  0  0  0  0  0  0
    3.0790   -1.6791    0.0000 O   0  0  0  0  0  0  0  0  0  0  0  0
    6.6044    1.2809    0.0000 N   0  0  0  0  0  0  0  0  0  0  0  0
    4.5080   -1.6791    0.0000 N   0  0  0  0  0  0  0  0  0  0  0  0
    5.5245    2.0655    0.0000 N   0  0  0  0  0  0  0  0  0  0  0  0
    5.2695    1.2809    0.0000 N   0  0  0  0  0  0  0  0  0  0  0  0
    7.3890    1.0260    0.0000 N   0  0  0  0  0  0  0  0  0  0  0  0
    8.1399    3.3142    0.0000 N   0  0  0  0  0  0  0  0  0  0  0  0
    4.5080   -2.5041    0.0000 C   0  0  0  0  0  0  0  0  0  0  0  0
    6.3495    2.0655    0.0000 C   0  0  0  0  0  0  0  0  0  0  0  0
    3.7935   -2.9166    0.0000 C   0  0  0  0  0  0  0  0  0  0  0  0
    6.8344    2.7330    0.0000 C   0  0  0  0  0  0  0  0  0  0  0  0
    5.9370    0.7960    0.0000 C   0  0  0  0  0  0  0  0  0  0  0  0
    5.2224   -0.4415    0.0000 C   0  0  0  0  0  0  0  0  0  0  0  0
    5.2224   -1.2666    0.0000 C   0  0  0  0  0  0  0  0  0  0  0  0
    5.2224   -2.9166    0.0000 C   0  0  0  0  0  0  0  0  0  0  0  0
    3.7935   -3.7416    0.0000 C   0  0  0  0  0  0  0  0  0  0  0  0
    5.2224   -3.7416    0.0000 C   0  0  0  0  0  0  0  0  0  0  0  0
    4.5080   -4.1541    0.0000 C   0  0  0  0  0  0  0  0  0  0  0  0
    6.4988    3.4867    0.0000 C   0  0  0  0  0  0  0  0  0  0  0  0
    7.6549    2.6467    0.0000 C   0  0  0  0  0  0  0  0  0  0  0  0
    3.0790   -2.5041    0.0000 C   0  0  0  0  0  0  0  0  0  0  0  0
    6.9838    4.1541    0.0000 C   0  0  0  0  0  0  0  0  0  0  0  0
    7.8043    4.0679    0.0000 C   0  0  0  0  0  0  0  0  0  0  0  0
    1.6500   -2.5041    0.0000 C   0  0  0  0  0  0  0  0  0  0  0  0
  1 15  1  0  0  0  0
  1 16  1  0  0  0  0
  2 24  1  0  0  0  0
  2 27  1  0  0  0  0
  3 17  2  0  0  0  0
  4 24  2  0  0  0  0
  5  9  1  0  0  0  0
  5 12  1  0  0  0  0
  5 15  1  0  0  0  0
  6 11  1  0  0  0  0
  6 17  1  0  0  0  0
  7  8  1  0  0  0  0
  7 12  2  0  0  0  0
  8 15  2  0  0  0  0
 10 23  2  0  0  0  0
 10 26  1  0  0  0  0
 11 13  2  0  0  0  0
 11 18  1  0  0  0  0
 12 14  1  0  0  0  0
 13 19  1  0  0  0  0
 13 24  1  0  0  0  0
 14 22  2  0  0  0  0
 14 23  1  0  0  0  0
 16 17  1  0  0  0  0
 18 20  2  0  0  0  0
 19 21  2  0  0  0  0
 20 21  1  0  0  0  0
 22 25  1  0  0  0  0
 25 26  2  0  0  0  0
M  END
> <From>
www.bindingDB.org

> <BindingDB Reactant_set_id>
95257

> <Ligand InChI>
InChI=1S/C17H16N6O3S/c1-26-16(25)12-6-2-3-7-13(12)20-14(24)10-27-17-22-21-15(23(17)18)11-5-4-8-19-9-11/h2-9H,10,18H2,1H3,(H,20,24)

> <Ligand InChI Key>
YBHLCBZSZSHMNY-UHFFFAOYSA-N

> <BindingDB MonomerID>
51368

> <BindingDB Ligand Name>
2-[[2-[[4-amino-5-(3-pyridinyl)-1,2,4-triazol-3-yl]thio]-1-oxoethyl]amino]benzoic acid methyl ester::2-[[2-[[4-amino-5-(3-pyridyl)-1,2,4-triazol-3-yl]thio]acetyl]amino]benzoic acid methyl ester::MLS001005868::SMR000349068::cid_2388246::methyl 2-[2-[(4-azanyl-5-pyridin-3-yl-1,2,4-triazol-3-yl)sulfanyl]ethanoylamino]benzoate::methyl 2-[[2-[(4-amino-5-pyridin-3-yl-1,2,4-triazol-3-yl)sulfanyl]acetyl]amino]benzoate

> <Target Name>
DNA repair protein RAD51 homolog 1

> <Target Source Organism According to Curator or DataSource>
Homo sapiens

> <Ki (nM)>


> <IC50 (nM)>
 53000

> <Kd (nM)>


> <EC50 (nM)>


> <kon (M-1-s-1)>


> <koff (s-1)>


> <pH>


> <Temp C>


> <Curation/DataSource>
PubChem

> <Article DOI>


> <BindingDB Entry DOI>
10.7270/Q2QN6558

> <PMID>


> <PubChem AID>
aid1437

> <Patent Number>


> <Authors>
PubChem, PC

> <Date of publication>
11/25/2008

> <Date in BindingDB>
5/31/2011

> <Institution>
PCMD

> <Link to Ligand in BindingDB>
http://www.bindingdb.org/bind/chemsearch/marvin/MolStructure.jsp?monomerid=51368

> <Link to Ligand-Target Pair in BindingDB>
http://www.bindingdb.org/jsp/dbsearch/PrimarySearch_ki.jsp?energyterm=kJ/mole&tag=pol&polymerid=4676&target=DNA+repair+protein+RAD51+homolog+1&column=ki&startPg=0&Increment=50&submit=Search

> <Link to Ligand-Target Pair in BindingDB>
http://www.bindingdb.org/jsp/dbsearch/PrimarySearch_ki.jsp?energyterm=kJ/mole&tag=r21&monomerid=51368&enzyme=DNA+repair+protein+RAD51+homolog+1&column=ki&startPg=0&Increment=50&submit=Search

> <Ligand HET ID in PDB>


> <PDB ID(s) for Ligand-Target Complex>


> <PubChem CID of Ligand>
2388246

> <PubChem SID of Ligand>
252631591

> <ChEBI ID of Ligand>


> <ChEMBL ID of Ligand>


> <DrugBank ID of Ligand>


> <IUPHAR_GRAC ID of Ligand>


> <KEGG ID of Ligand>


> <ZINC ID of Ligand>
ZINC01362450

> <Number of Protein Chains in Target (bigger than 1 implies a multichain complex)>
1

> <BindingDB Target Chain Sequence>
MAMQMQLEANADTSVEEESFGPQPISRLEQCGINANDVKKLEEAGFHTVEAVAYAPKKELINIKGISEAKADKILAEAAKLVPMGFTTATEFHQRRSEIIQITTGSKELDKLLQGGIETGSITEMFGEFRTGKTQICHTLAVTCQLPIDRGGGEGKAMYIDTEGTFRPERLLAVAERYGLSGSDVLDNVAYARAFNTDHQTQLLYQASAMMVESRYALLIVDSATALYRTDYSGRGELSARQMHLARFLRMLLRLADEFGVAVVITNQVVAQVDGAAMFAADPKKPIGGNIIAHASTTRLYLRKGRGETRICKIYDSPCLPEAEAMFAINADGVGDAKD

> <PDB ID(s) of Target Chain>
1N0W,5JZC,5NP7,5NWL,8BQ2,8BR2,8BSC

> <UniProt (SwissProt) Recommended Name of Target Chain>
DNA repair protein RAD51 homolog 1

> <UniProt (SwissProt) Entry Name of Target Chain>
RAD51_HUMAN

> <UniProt (SwissProt) Primary ID of Target Chain>
Q06609

> <UniProt (SwissProt) Secondary ID(s) of Target Chain>
B0FXP0 B2R8T6 Q6FHX9 Q6ZNA8 Q9BV60

> <UniProt (SwissProt) Alternative ID(s) of Target Chain>


> <UniProt (TrEMBL) Submitted Name of Target Chain>


> <UniProt (TrEMBL) Entry Name of Target Chain>


> <UniProt (TrEMBL) Primary ID of Target Chain>


> <UniProt (TrEMBL) Secondary ID(s) of Target Chain>


> <UniProt (TrEMBL) Alternative ID(s) of Target Chain>


$$$$
2382522
  Mrv0541 11251416042D          

 28 31  0  0  0  0            999 V2000
    4.5080   -1.0313    0.0000 S   0  0  0  0  0  0  0  0  0  0  0  0
   10.2900    1.2827    0.0000 O   0  0  0  0  0  0  0  0  0  0  0  0
   10.2900   -0.0451    0.0000 O   0  0  0  0  0  0  0  0  0  0  0  0
    6.6515    1.0313    0.0000 N   0  0  0  0  0  0  0  0  0  0  0  0
    5.2224    0.2063    0.0000 N   0  0  0  0  0  0  0  0  0  0  0  0
    3.7935    0.2063    0.0000 N   0  0  0  0  0  0  0  0  0  0  0  0
    5.9370    1.4438    0.0000 C   0  0  0  0  0  0  0  0  0  0  0  0
    6.6515    0.2063    0.0000 C   0  0  0  0  0  0  0  0  0  0  0  0
    5.2224    1.0313    0.0000 C   0  0  0  0  0  0  0  0  0  0  0  0
    5.9370   -0.2063    0.0000 C   0  0  0  0  0  0  0  0  0  0  0  0
    7.3659    1.4438    0.0000 C   0  0  0  0  0  0  0  0  0  0  0  0
    8.0804    1.0313    0.0000 C   0  0  0  0  0  0  0  0  0  0  0  0
    4.5080   -0.2063    0.0000 C   0  0  0  0  0  0  0  0  0  0  0  0
    8.7949    1.4438    0.0000 C   0  0  0  0  0  0  0  0  0  0  0  0
    8.0804    0.2063    0.0000 C   0  0  0  0  0  0  0  0  0  0  0  0
    3.0790   -0.2063    0.0000 C   0  0  0  0  0  0  0  0  0  0  0  0
    2.3645    0.2063    0.0000 C   0  0  0  0  0  0  0  0  0  0  0  0
    2.3645    1.0313    0.0000 C   0  0  0  0  0  0  0  0  0  0  0  0
    9.5094    1.0313    0.0000 C   0  0  0  0  0  0  0  0  0  0  0  0
    9.5094    0.2063    0.0000 C   0  0  0  0  0  0  0  0  0  0  0  0
    8.7949   -0.2063    0.0000 C   0  0  0  0  0  0  0  0  0  0  0  0
    3.0790   -1.0313    0.0000 C   0  0  0  0  0  0  0  0  0  0  0  0
    1.6500   -0.2063    0.0000 C   0  0  0  0  0  0  0  0  0  0  0  0
    1.6500    1.4438    0.0000 C   0  0  0  0  0  0  0  0  0  0  0  0
    3.0790    1.4438    0.0000 C   0  0  0  0  0  0  0  0  0  0  0  0
   10.7715    0.6188    0.0000 C   0  0  0  0  0  0  0  0  0  0  0  0
    2.3645   -1.4438    0.0000 C   0  0  0  0  0  0  0  0  0  0  0  0
    1.6500   -1.0313    0.0000 C   0  0  0  0  0  0  0  0  0  0  0  0
  1 13  2  0  0  0  0
  2 19  1  0  0  0  0
  2 26  1  0  0  0  0
  3 20  1  0  0  0  0
  3 26  1  0  0  0  0
  4  7  1  0  0  0  0
  4  8  1  0  0  0  0
  4 11  1  0  0  0  0
  5  9  1  0  0  0  0
  5 10  1  0  0  0  0
  5 13  1  0  0  0  0
  6 13  1  0  0  0  0
  6 16  1  0  0  0  0
  7  9  1  0  0  0  0
  8 10  1  0  0  0  0
 11 12  1  0  0  0  0
 12 14  2  0  0  0  0
 12 15  1  0  0  0  0
 14 19  1  0  0  0  0
 15 21  2  0  0  0  0
 16 17  2  0  0  0  0
 16 22  1  0  0  0  0
 17 18  1  0  0  0  0
 17 23  1  0  0  0  0
 18 24  1  0  0  0  0
 18 25  1  0  0  0  0
 19 20  2  0  0  0  0
 20 21  1  0  0  0  0
 22 27  2  0  0  0  0
 23 28  2  0  0  0  0
 27 28  1  0  0  0  0
M  END
> <From>
www.bindingDB.org

> <BindingDB Reactant_set_id>
95258

> <Ligand InChI>
InChI=1S/C22H27N3O2S/c1-16(2)18-5-3-4-6-19(18)23-22(28)25-11-9-24(10-12-25)14-17-7-8-20-21(13-17)27-15-26-20/h3-8,13,16H,9-12,14-15H2,1-2H3,(H,23,28)

> <Ligand InChI Key>
VJAZVKFBAKNYRS-UHFFFAOYSA-N

> <BindingDB MonomerID>
51369

> <BindingDB Ligand Name>
4-(1,3-benzodioxol-5-ylmethyl)-N-(2-propan-2-ylphenyl)-1-piperazinecarbothioamide::4-(1,3-benzodioxol-5-ylmethyl)-N-(2-propan-2-ylphenyl)piperazine-1-carbothioamide::MLS001005902::N-o-cumenyl-4-piperonyl-piperazine-1-carbothioamide::SMR000349012::cid_2382522

> <Target Name>
DNA repair protein RAD51 homolog 1

> <Target Source Organism According to Curator or DataSource>
Homo sapiens

> <Ki (nM)>


> <IC50 (nM)>
 53000

> <Kd (nM)>


> <EC50 (nM)>


> <kon (M-1-s-1)>


> <koff (s-1)>


> <pH>


> <Temp C>


> <Curation/DataSource>
PubChem

> <Article DOI>


> <BindingDB Entry DOI>
10.7270/Q2QN6558

> <PMID>


> <PubChem AID>
aid1437

> <Patent Number>


> <Authors>
PubChem, PC

> <Date of publication>
11/25/2008

> <Date in BindingDB>
5/31/2011

> <Institution>
PCMD

> <Link to Ligand in BindingDB>
http://www.bindingdb.org/bind/chemsearch/marvin/MolStructure.jsp?monomerid=51369

> <Link to Ligand-Target Pair in BindingDB>
http://www.bindingdb.org/jsp/dbsearch/PrimarySearch_ki.jsp?energyterm=kJ/mole&tag=pol&polymerid=4676&target=DNA+repair+protein+RAD51+homolog+1&column=ki&startPg=0&Increment=50&submit=Search

> <Link to Ligand-Target Pair in BindingDB>
http://www.bindingdb.org/jsp/dbsearch/PrimarySearch_ki.jsp?energyterm=kJ/mole&tag=r21&monomerid=51369&enzyme=DNA+repair+protein+RAD51+homolog+1&column=ki&startPg=0&Increment=50&submit=Search

> <Ligand HET ID in PDB>


> <PDB ID(s) for Ligand-Target Complex>


> <PubChem CID of Ligand>
2382522

> <PubChem SID of Ligand>
252631592

> <ChEBI ID of Ligand>


> <ChEMBL ID of Ligand>


> <DrugBank ID of Ligand>


> <IUPHAR_GRAC ID of Ligand>


> <KEGG ID of Ligand>


> <ZINC ID of Ligand>
ZINC04373942

> <Number of Protein Chains in Target (bigger than 1 implies a multichain complex)>
1

> <BindingDB Target Chain Sequence>
MAMQMQLEANADTSVEEESFGPQPISRLEQCGINANDVKKLEEAGFHTVEAVAYAPKKELINIKGISEAKADKILAEAAKLVPMGFTTATEFHQRRSEIIQITTGSKELDKLLQGGIETGSITEMFGEFRTGKTQICHTLAVTCQLPIDRGGGEGKAMYIDTEGTFRPERLLAVAERYGLSGSDVLDNVAYARAFNTDHQTQLLYQASAMMVESRYALLIVDSATALYRTDYSGRGELSARQMHLARFLRMLLRLADEFGVAVVITNQVVAQVDGAAMFAADPKKPIGGNIIAHASTTRLYLRKGRGETRICKIYDSPCLPEAEAMFAINADGVGDAKD

> <PDB ID(s) of Target Chain>
1N0W,5JZC,5NP7,5NWL,8BQ2,8BR2,8BSC

> <UniProt (SwissProt) Recommended Name of Target Chain>
DNA repair protein RAD51 homolog 1

> <UniProt (SwissProt) Entry Name of Target Chain>
RAD51_HUMAN

> <UniProt (SwissProt) Primary ID of Target Chain>
Q06609

> <UniProt (SwissProt) Secondary ID(s) of Target Chain>
B0FXP0 B2R8T6 Q6FHX9 Q6ZNA8 Q9BV60

> <UniProt (SwissProt) Alternative ID(s) of Target Chain>


> <UniProt (TrEMBL) Submitted Name of Target Chain>


> <UniProt (TrEMBL) Entry Name of Target Chain>


> <UniProt (TrEMBL) Primary ID of Target Chain>


> <UniProt (TrEMBL) Secondary ID(s) of Target Chain>


> <UniProt (TrEMBL) Alternative ID(s) of Target Chain>


$$$$
4020555
  Mrv0541 11251416042D          

 19 20  0  0  0  0            999 V2000
    1.6500   -0.6188    0.0000 Cl  0  0  0  0  0  0  0  0  0  0  0  0
    3.0789   -3.0938    0.0000 Cl  0  0  0  0  0  0  0  0  0  0  0  0
    4.5079    0.2063    0.0000 S   0  0  0  0  0  0  0  0  0  0  0  0
    3.7934    1.4438    0.0000 N   0  0  0  0  0  0  0  0  0  0  0  0
    3.0789    0.2063    0.0000 N   0  0  0  0  0  0  0  0  0  0  0  0
    5.2223    1.4438    0.0000 C   0  0  0  0  0  0  0  0  0  0  0  0
    4.5079    1.8563    0.0000 C   0  0  0  0  0  0  0  0  0  0  0  0
    5.9369    1.8563    0.0000 C   0  0  0  0  0  0  0  0  0  0  0  0
    4.5079    2.6812    0.0000 C   0  0  0  0  0  0  0  0  0  0  0  0
    5.9369    2.6812    0.0000 C   0  0  0  0  0  0  0  0  0  0  0  0
    5.2223    3.0938    0.0000 C   0  0  0  0  0  0  0  0  0  0  0  0
    5.2223    0.6188    0.0000 C   0  0  0  0  0  0  0  0  0  0  0  0
    3.7934    0.6188    0.0000 C   0  0  0  0  0  0  0  0  0  0  0  0
    3.0789   -0.6188    0.0000 C   0  0  0  0  0  0  0  0  0  0  0  0
    2.3644   -1.0313    0.0000 C   0  0  0  0  0  0  0  0  0  0  0  0
    3.7934   -1.0313    0.0000 C   0  0  0  0  0  0  0  0  0  0  0  0
    2.3644   -1.8563    0.0000 C   0  0  0  0  0  0  0  0  0  0  0  0
    3.7934   -1.8563    0.0000 C   0  0  0  0  0  0  0  0  0  0  0  0
    3.0789   -2.2688    0.0000 C   0  0  0  0  0  0  0  0  0  0  0  0
  1 15  1  0  0  0  0
  2 19  1  0  0  0  0
  3 13  2  0  0  0  0
  4  7  1  0  0  0  0
  4 13  1  0  0  0  0
  5 13  1  0  0  0  0
  5 14  1  0  0  0  0
  6  7  1  0  0  0  0
  6  8  1  0  0  0  0
  6 12  1  0  0  0  0
  7  9  1  0  0  0  0
  8 10  1  0  0  0  0
  9 11  1  0  0  0  0
 10 11  1  0  0  0  0
 14 15  2  0  0  0  0
 14 16  1  0  0  0  0
 15 17  1  0  0  0  0
 16 18  2  0  0  0  0
 17 19  2  0  0  0  0
 18 19  1  0  0  0  0
M  END
> <From>
www.bindingDB.org

> <BindingDB Reactant_set_id>
95259

> <Ligand InChI>
InChI=1S/C14H18Cl2N2S/c1-9-4-2-3-5-12(9)17-14(19)18-13-7-6-10(15)8-11(13)16/h6-9,12H,2-5H2,1H3,(H2,17,18,19)

> <Ligand InChI Key>
BCNWUSZGNAKVGY-UHFFFAOYSA-N

> <BindingDB MonomerID>
51370

> <BindingDB Ligand Name>
1-(2,4-dichlorophenyl)-3-(2-methylcyclohexyl)thiourea::MLS001005884::SMR000349030::cid_4020555

> <Target Name>
DNA repair protein RAD51 homolog 1

> <Target Source Organism According to Curator or DataSource>
Homo sapiens

> <Ki (nM)>


> <IC50 (nM)>
 53000

> <Kd (nM)>


> <EC50 (nM)>


> <kon (M-1-s-1)>


> <koff (s-1)>


> <pH>


> <Temp C>


> <Curation/DataSource>
PubChem

> <Article DOI>


> <BindingDB Entry DOI>
10.7270/Q2QN6558

> <PMID>


> <PubChem AID>
aid1437

> <Patent Number>


> <Authors>
PubChem, PC

> <Date of publication>
11/25/2008

> <Date in BindingDB>
5/31/2011

> <Institution>
PCMD

> <Link to Ligand in BindingDB>
http://www.bindingdb.org/bind/chemsearch/marvin/MolStructure.jsp?monomerid=51370

> <Link to Ligand-Target Pair in BindingDB>
http://www.bindingdb.org/jsp/dbsearch/PrimarySearch_ki.jsp?energyterm=kJ/mole&tag=pol&polymerid=4676&target=DNA+repair+protein+RAD51+homolog+1&column=ki&startPg=0&Increment=50&submit=Search

> <Link to Ligand-Target Pair in BindingDB>
http://www.bindingdb.org/jsp/dbsearch/PrimarySearch_ki.jsp?energyterm=kJ/mole&tag=r21&monomerid=51370&enzyme=DNA+repair+protein+RAD51+homolog+1&column=ki&startPg=0&Increment=50&submit=Search

> <Ligand HET ID in PDB>


> <PDB ID(s) for Ligand-Target Complex>


> <PubChem CID of Ligand>
4020555

> <PubChem SID of Ligand>
252631593

> <ChEBI ID of Ligand>


> <ChEMBL ID of Ligand>


> <DrugBank ID of Ligand>


> <IUPHAR_GRAC ID of Ligand>


> <KEGG ID of Ligand>


> <ZINC ID of Ligand>
ZINC19500694

> <Number of Protein Chains in Target (bigger than 1 implies a multichain complex)>
1

> <BindingDB Target Chain Sequence>
MAMQMQLEANADTSVEEESFGPQPISRLEQCGINANDVKKLEEAGFHTVEAVAYAPKKELINIKGISEAKADKILAEAAKLVPMGFTTATEFHQRRSEIIQITTGSKELDKLLQGGIETGSITEMFGEFRTGKTQICHTLAVTCQLPIDRGGGEGKAMYIDTEGTFRPERLLAVAERYGLSGSDVLDNVAYARAFNTDHQTQLLYQASAMMVESRYALLIVDSATALYRTDYSGRGELSARQMHLARFLRMLLRLADEFGVAVVITNQVVAQVDGAAMFAADPKKPIGGNIIAHASTTRLYLRKGRGETRICKIYDSPCLPEAEAMFAINADGVGDAKD

> <PDB ID(s) of Target Chain>
1N0W,5JZC,5NP7,5NWL,8BQ2,8BR2,8BSC

> <UniProt (SwissProt) Recommended Name of Target Chain>
DNA repair protein RAD51 homolog 1

> <UniProt (SwissProt) Entry Name of Target Chain>
RAD51_HUMAN

> <UniProt (SwissProt) Primary ID of Target Chain>
Q06609

> <UniProt (SwissProt) Secondary ID(s) of Target Chain>
B0FXP0 B2R8T6 Q6FHX9 Q6ZNA8 Q9BV60

> <UniProt (SwissProt) Alternative ID(s) of Target Chain>


> <UniProt (TrEMBL) Submitted Name of Target Chain>


> <UniProt (TrEMBL) Entry Name of Target Chain>


> <UniProt (TrEMBL) Primary ID of Target Chain>


> <UniProt (TrEMBL) Secondary ID(s) of Target Chain>


> <UniProt (TrEMBL) Alternative ID(s) of Target Chain>


$$$$
2313950
  Mrv0541 11251416042D          

 23 24  0  0  0  0            999 V2000
    2.3645   -3.7126    0.0000 F   0  0  0  0  0  0  0  0  0  0  0  0
    1.6500   -2.4751    0.0000 F   0  0  0  0  0  0  0  0  0  0  0  0
    3.0790    2.4751    0.0000 O   0  0  0  0  0  0  0  0  0  0  0  0
    3.0790   -2.4751    0.0000 O   0  0  0  0  0  0  0  0  0  0  0  0
    5.9370    3.3001    0.0000 N   0  0  0  0  0  0  0  0  0  0  0  0
    4.5080    2.4751    0.0000 N   0  0  0  0  0  0  0  0  0  0  0  0
    5.2224    0.4125    0.0000 N   0  0  0  0  0  0  0  0  0  0  0  0
    5.2224    3.7126    0.0000 C   0  0  0  0  0  0  0  0  0  0  0  0
    5.9370    2.4751    0.0000 C   0  0  0  0  0  0  0  0  0  0  0  0
    4.5080    3.3001    0.0000 C   0  0  0  0  0  0  0  0  0  0  0  0
    5.2224    2.0625    0.0000 C   0  0  0  0  0  0  0  0  0  0  0  0
    6.6515    3.7126    0.0000 C   0  0  0  0  0  0  0  0  0  0  0  0
    3.7935    2.0625    0.0000 C   0  0  0  0  0  0  0  0  0  0  0  0
    3.7935    1.2375    0.0000 C   0  0  0  0  0  0  0  0  0  0  0  0
    3.0790    0.8250    0.0000 C   0  0  0  0  0  0  0  0  0  0  0  0
    3.0790    0.0000    0.0000 C   0  0  0  0  0  0  0  0  0  0  0  0
    4.5080    0.8250    0.0000 C   0  0  0  0  0  0  0  0  0  0  0  0
    2.3645   -0.4125    0.0000 C   0  0  0  0  0  0  0  0  0  0  0  0
    3.7935   -0.4125    0.0000 C   0  0  0  0  0  0  0  0  0  0  0  0
    2.3645   -1.2375    0.0000 C   0  0  0  0  0  0  0  0  0  0  0  0
    3.7935   -1.2375    0.0000 C   0  0  0  0  0  0  0  0  0  0  0  0
    3.0790   -1.6500    0.0000 C   0  0  0  0  0  0  0  0  0  0  0  0
    2.3645   -2.8876    0.0000 C   0  0  0  0  0  0  0  0  0  0  0  0
  1 23  1  0  0  0  0
  2 23  1  0  0  0  0
  3 13  2  0  0  0  0
  4 22  1  0  0  0  0
  4 23  1  0  0  0  0
  5  8  1  0  0  0  0
  5  9  1  0  0  0  0
  5 12  1  0  0  0  0
  6 10  1  0  0  0  0
  6 11  1  0  0  0  0
  6 13  1  0  0  0  0
  7 17  3  0  0  0  0
  8 10  1  0  0  0  0
  9 11  1  0  0  0  0
 13 14  1  0  0  0  0
 14 15  2  0  0  0  0
 14 17  1  0  0  0  0
 15 16  1  0  0  0  0
 16 18  2  0  0  0  0
 16 19  1  0  0  0  0
 18 20  1  0  0  0  0
 19 21  2  0  0  0  0
 20 22  2  0  0  0  0
 21 22  1  0  0  0  0
M  END
> <From>
www.bindingDB.org

> <BindingDB Reactant_set_id>
95260

> <Ligand InChI>
InChI=1S/C16H17F2N3O2/c1-20-6-8-21(9-7-20)15(22)13(11-19)10-12-2-4-14(5-3-12)23-16(17)18/h2-5,10,16H,6-9H2,1H3/b13-10+

> <Ligand InChI Key>
MQCUCKWRFADPNV-JLHYYAGUSA-N

> <BindingDB MonomerID>
51371

> <BindingDB Ligand Name>
(E)-3-[4-(difluoromethoxy)phenyl]-2-(4-methylpiperazine-1-carbonyl)acrylonitrile::(E)-3-[4-(difluoromethoxy)phenyl]-2-(4-methylpiperazine-1-carbonyl)prop-2-enenitrile::(E)-3-[4-(difluoromethoxy)phenyl]-2-[(4-methyl-1-piperazinyl)-oxomethyl]-2-propenenitrile::(E)-3-[4-[bis(fluoranyl)methoxy]phenyl]-2-(4-methylpiperazin-1-yl)carbonyl-prop-2-enenitrile::MLS001032849::SMR000363461::cid_2313950

> <Target Name>
DNA repair protein RAD51 homolog 1

> <Target Source Organism According to Curator or DataSource>
Homo sapiens

> <Ki (nM)>


> <IC50 (nM)>
 53000

> <Kd (nM)>


> <EC50 (nM)>


> <kon (M-1-s-1)>


> <koff (s-1)>


> <pH>


> <Temp C>


> <Curation/DataSource>
PubChem

> <Article DOI>


> <BindingDB Entry DOI>
10.7270/Q2QN6558

> <PMID>


> <PubChem AID>
aid1437

> <Patent Number>


> <Authors>
PubChem, PC

> <Date of publication>
11/25/2008

> <Date in BindingDB>
5/31/2011

> <Institution>
PCMD

> <Link to Ligand in BindingDB>
http://www.bindingdb.org/bind/chemsearch/marvin/MolStructure.jsp?monomerid=51371

> <Link to Ligand-Target Pair in BindingDB>
http://www.bindingdb.org/jsp/dbsearch/PrimarySearch_ki.jsp?energyterm=kJ/mole&tag=pol&polymerid=4676&target=DNA+repair+protein+RAD51+homolog+1&column=ki&startPg=0&Increment=50&submit=Search

> <Link to Ligand-Target Pair in BindingDB>
http://www.bindingdb.org/jsp/dbsearch/PrimarySearch_ki.jsp?energyterm=kJ/mole&tag=r21&monomerid=51371&enzyme=DNA+repair+protein+RAD51+homolog+1&column=ki&startPg=0&Increment=50&submit=Search

> <Ligand HET ID in PDB>


> <PDB ID(s) for Ligand-Target Complex>


> <PubChem CID of Ligand>
2313950

> <PubChem SID of Ligand>
252631594

> <ChEBI ID of Ligand>


> <ChEMBL ID of Ligand>


> <DrugBank ID of Ligand>


> <IUPHAR_GRAC ID of Ligand>


> <KEGG ID of Ligand>


> <ZINC ID of Ligand>
ZINC04130085

> <Number of Protein Chains in Target (bigger than 1 implies a multichain complex)>
1

> <BindingDB Target Chain Sequence>
MAMQMQLEANADTSVEEESFGPQPISRLEQCGINANDVKKLEEAGFHTVEAVAYAPKKELINIKGISEAKADKILAEAAKLVPMGFTTATEFHQRRSEIIQITTGSKELDKLLQGGIETGSITEMFGEFRTGKTQICHTLAVTCQLPIDRGGGEGKAMYIDTEGTFRPERLLAVAERYGLSGSDVLDNVAYARAFNTDHQTQLLYQASAMMVESRYALLIVDSATALYRTDYSGRGELSARQMHLARFLRMLLRLADEFGVAVVITNQVVAQVDGAAMFAADPKKPIGGNIIAHASTTRLYLRKGRGETRICKIYDSPCLPEAEAMFAINADGVGDAKD

> <PDB ID(s) of Target Chain>
1N0W,5JZC,5NP7,5NWL,8BQ2,8BR2,8BSC

> <UniProt (SwissProt) Recommended Name of Target Chain>
DNA repair protein RAD51 homolog 1

> <UniProt (SwissProt) Entry Name of Target Chain>
RAD51_HUMAN

> <UniProt (SwissProt) Primary ID of Target Chain>
Q06609

> <UniProt (SwissProt) Secondary ID(s) of Target Chain>
B0FXP0 B2R8T6 Q6FHX9 Q6ZNA8 Q9BV60

> <UniProt (SwissProt) Alternative ID(s) of Target Chain>


> <UniProt (TrEMBL) Submitted Name of Target Chain>


> <UniProt (TrEMBL) Entry Name of Target Chain>


> <UniProt (TrEMBL) Primary ID of Target Chain>


> <UniProt (TrEMBL) Secondary ID(s) of Target Chain>


> <UniProt (TrEMBL) Alternative ID(s) of Target Chain>


$$$$
5093094
  Mrv0541 11251415482D          

 24 25  0  0  0  0            999 V2000
    2.3645    0.2063    0.0000 Cl  0  0  0  0  0  0  0  0  0  0  0  0
    2.3645   -3.0938    0.0000 Cl  0  0  0  0  0  0  0  0  0  0  0  0
    4.5080    3.0938    0.0000 O   0  0  0  0  0  0  0  0  0  0  0  0
    5.2224   -0.6188    0.0000 O   0  0  0  0  0  0  0  0  0  0  0  0
    5.9370    0.6188    0.0000 O   0  0  0  0  0  0  0  0  0  0  0  0
    4.5080    1.4438    0.0000 N   0  0  0  0  0  0  0  0  0  0  0  0
    3.7935    0.2063    0.0000 N   0  0  0  0  0  0  0  0  0  0  0  0
    3.7935   -0.6188    0.0000 N   0  0  0  0  0  0  0  0  0  0  0  0
    5.2224    2.6813    0.0000 C   0  0  0  0  0  0  0  0  0  0  0  0
    3.7935    2.6813    0.0000 C   0  0  0  0  0  0  0  0  0  0  0  0
    3.7935    1.8563    0.0000 C   0  0  0  0  0  0  0  0  0  0  0  0
    5.2224    1.8563    0.0000 C   0  0  0  0  0  0  0  0  0  0  0  0
    3.0790    3.0938    0.0000 C   0  0  0  0  0  0  0  0  0  0  0  0
    5.9370    3.0938    0.0000 C   0  0  0  0  0  0  0  0  0  0  0  0
    4.5080    0.6188    0.0000 C   0  0  0  0  0  0  0  0  0  0  0  0
    5.2224    0.2063    0.0000 C   0  0  0  0  0  0  0  0  0  0  0  0
    3.0790   -1.0313    0.0000 C   0  0  0  0  0  0  0  0  0  0  0  0
    5.9370   -1.0313    0.0000 C   0  0  0  0  0  0  0  0  0  0  0  0
    2.3645   -0.6188    0.0000 C   0  0  0  0  0  0  0  0  0  0  0  0
    3.0790   -1.8563    0.0000 C   0  0  0  0  0  0  0  0  0  0  0  0
    5.9370   -1.8563    0.0000 C   0  0  0  0  0  0  0  0  0  0  0  0
    2.3645   -2.2688    0.0000 C   0  0  0  0  0  0  0  0  0  0  0  0
    1.6500   -1.0313    0.0000 C   0  0  0  0  0  0  0  0  0  0  0  0
    1.6500   -1.8563    0.0000 C   0  0  0  0  0  0  0  0  0  0  0  0
  1 19  1  0  0  0  0
  2 22  1  0  0  0  0
  3  9  1  0  0  0  0
  3 10  1  0  0  0  0
  4 16  1  0  0  0  0
  4 18  1  0  0  0  0
  5 16  2  0  0  0  0
  6 11  1  0  0  0  0
  6 12  1  0  0  0  0
  6 15  1  0  0  0  0
  7  8  1  4  0  0  0
  7 15  2  0  0  0  0
  8 17  1  0  0  0  0
  9 12  1  0  0  0  0
  9 14  1  0  0  0  0
 10 11  1  0  0  0  0
 10 13  1  0  0  0  0
 15 16  1  0  0  0  0
 17 19  2  0  0  0  0
 17 20  1  0  0  0  0
 18 21  1  0  0  0  0
 19 23  1  0  0  0  0
 20 22  2  0  0  0  0
 22 24  1  0  0  0  0
 23 24  2  0  0  0  0
M  END
> <From>
www.bindingDB.org

> <BindingDB Reactant_set_id>
95261

> <Ligand InChI>
InChI=1S/C16H21Cl2N3O3/c1-4-23-16(22)15(21-8-10(2)24-11(3)9-21)20-19-14-7-12(17)5-6-13(14)18/h5-7,10-11,19H,4,8-9H2,1-3H3

> <Ligand InChI Key>
JCHMFMSWRWHRFI-UHFFFAOYSA-N

> <BindingDB MonomerID>
43840

> <BindingDB Ligand Name>
2-[(2,5-dichlorophenyl)hydrazinylidene]-2-(2,6-dimethyl-4-morpholinyl)acetic acid ethyl ester::2-[(2,5-dichlorophenyl)hydrazono]-2-(2,6-dimethylmorpholino)acetic acid ethyl ester::Acid, 22::MLS001032852::SMR000363491::cid_5093094::ethyl 2-[(2,5-dichlorophenyl)hydrazinylidene]-2-(2,6-dimethylmorpholin-4-yl)acetate::ethyl 2-[[2,5-bis(chloranyl)phenyl]hydrazinylidene]-2-(2,6-dimethylmorpholin-4-yl)ethanoate

> <Target Name>
DNA repair protein RAD51 homolog 1

> <Target Source Organism According to Curator or DataSource>
Homo sapiens

> <Ki (nM)>


> <IC50 (nM)>
 53000

> <Kd (nM)>


> <EC50 (nM)>


> <kon (M-1-s-1)>


> <koff (s-1)>


> <pH>


> <Temp C>


> <Curation/DataSource>
PubChem

> <Article DOI>


> <BindingDB Entry DOI>
10.7270/Q2QN6558

> <PMID>


> <PubChem AID>
aid1437

> <Patent Number>


> <Authors>
PubChem, PC

> <Date of publication>
11/25/2008

> <Date in BindingDB>
5/31/2011

> <Institution>
PCMD

> <Link to Ligand in BindingDB>
http://www.bindingdb.org/bind/chemsearch/marvin/MolStructure.jsp?monomerid=43840

> <Link to Ligand-Target Pair in BindingDB>
http://www.bindingdb.org/jsp/dbsearch/PrimarySearch_ki.jsp?energyterm=kJ/mole&tag=pol&polymerid=4676&target=DNA+repair+protein+RAD51+homolog+1&column=ki&startPg=0&Increment=50&submit=Search

> <Link to Ligand-Target Pair in BindingDB>
http://www.bindingdb.org/jsp/dbsearch/PrimarySearch_ki.jsp?energyterm=kJ/mole&tag=r21&monomerid=43840&enzyme=DNA+repair+protein+RAD51+homolog+1&column=ki&startPg=0&Increment=50&submit=Search

> <Ligand HET ID in PDB>


> <PDB ID(s) for Ligand-Target Complex>


> <PubChem CID of Ligand>
6268339

> <PubChem SID of Ligand>
123080198

> <ChEBI ID of Ligand>


> <ChEMBL ID of Ligand>


> <DrugBank ID of Ligand>


> <IUPHAR_GRAC ID of Ligand>


> <KEGG ID of Ligand>


> <ZINC ID of Ligand>
ZINC37867904

> <Number of Protein Chains in Target (bigger than 1 implies a multichain complex)>
1

> <BindingDB Target Chain Sequence>
MAMQMQLEANADTSVEEESFGPQPISRLEQCGINANDVKKLEEAGFHTVEAVAYAPKKELINIKGISEAKADKILAEAAKLVPMGFTTATEFHQRRSEIIQITTGSKELDKLLQGGIETGSITEMFGEFRTGKTQICHTLAVTCQLPIDRGGGEGKAMYIDTEGTFRPERLLAVAERYGLSGSDVLDNVAYARAFNTDHQTQLLYQASAMMVESRYALLIVDSATALYRTDYSGRGELSARQMHLARFLRMLLRLADEFGVAVVITNQVVAQVDGAAMFAADPKKPIGGNIIAHASTTRLYLRKGRGETRICKIYDSPCLPEAEAMFAINADGVGDAKD

> <PDB ID(s) of Target Chain>
1N0W,5JZC,5NP7,5NWL,8BQ2,8BR2,8BSC

> <UniProt (SwissProt) Recommended Name of Target Chain>
DNA repair protein RAD51 homolog 1

> <UniProt (SwissProt) Entry Name of Target Chain>
RAD51_HUMAN

> <UniProt (SwissProt) Primary ID of Target Chain>
Q06609

> <UniProt (SwissProt) Secondary ID(s) of Target Chain>
B0FXP0 B2R8T6 Q6FHX9 Q6ZNA8 Q9BV60

> <UniProt (SwissProt) Alternative ID(s) of Target Chain>


> <UniProt (TrEMBL) Submitted Name of Target Chain>


> <UniProt (TrEMBL) Entry Name of Target Chain>


> <UniProt (TrEMBL) Primary ID of Target Chain>


> <UniProt (TrEMBL) Secondary ID(s) of Target Chain>


> <UniProt (TrEMBL) Alternative ID(s) of Target Chain>


$$$$
2513489
  Mrv0541 11251415482D          

 24 25  0  0  0  0            999 V2000
    5.2616   -0.1611    0.0000 S   0  0  0  0  0  0  0  0  0  0  0  0
    1.6500   -3.1256    0.0000 F   0  0  0  0  0  0  0  0  0  0  0  0
    2.7770   -3.4276    0.0000 F   0  0  0  0  0  0  0  0  0  0  0  0
    1.9520   -1.9986    0.0000 F   0  0  0  0  0  0  0  0  0  0  0  0
    2.3645   -0.2380    0.0000 O   0  0  0  0  0  0  0  0  0  0  0  0
    7.7133    2.8464    0.0000 O   0  0  0  0  0  0  0  0  0  0  0  0
    6.4079    3.4276    0.0000 O   0  0  0  0  0  0  0  0  0  0  0  0
    3.7935   -0.2380    0.0000 N   0  0  0  0  0  0  0  0  0  0  0  0
    4.5942    0.9950    0.0000 N   0  0  0  0  0  0  0  0  0  0  0  0
    3.7935   -1.0630    0.0000 C   0  0  0  0  0  0  0  0  0  0  0  0
    3.0790   -1.4755    0.0000 C   0  0  0  0  0  0  0  0  0  0  0  0
    3.0790   -2.3006    0.0000 C   0  0  0  0  0  0  0  0  0  0  0  0
    4.5080   -1.4755    0.0000 C   0  0  0  0  0  0  0  0  0  0  0  0
    4.5080    0.1745    0.0000 C   0  0  0  0  0  0  0  0  0  0  0  0
    3.7935   -2.7131    0.0000 C   0  0  0  0  0  0  0  0  0  0  0  0
    4.5080   -2.3006    0.0000 C   0  0  0  0  0  0  0  0  0  0  0  0
    3.0790    0.1745    0.0000 C   0  0  0  0  0  0  0  0  0  0  0  0
    2.3645   -2.7131    0.0000 C   0  0  0  0  0  0  0  0  0  0  0  0
    5.4012    1.1665    0.0000 C   0  0  0  0  0  0  0  0  0  0  0  0
    3.0790    0.9995    0.0000 C   0  0  0  0  0  0  0  0  0  0  0  0
    5.8137    0.4520    0.0000 C   0  0  0  0  0  0  0  0  0  0  0  0
    5.7367    1.9202    0.0000 C   0  0  0  0  0  0  0  0  0  0  0  0
    6.5572    2.0064    0.0000 C   0  0  0  0  0  0  0  0  0  0  0  0
    6.8928    2.7601    0.0000 C   0  0  0  0  0  0  0  0  0  0  0  0
  1 14  1  0  0  0  0
  1 21  1  0  0  0  0
  2 18  1  0  0  0  0
  3 18  1  0  0  0  0
  4 18  1  0  0  0  0
  5 17  2  0  0  0  0
  6 24  1  0  0  0  0
  7 24  2  0  0  0  0
  8 10  1  0  0  0  0
  8 14  1  0  0  0  0
  8 17  1  0  0  0  0
  9 14  2  0  0  0  0
  9 19  1  0  0  0  0
 10 11  2  0  0  0  0
 10 13  1  0  0  0  0
 11 12  1  0  0  0  0
 12 15  2  0  0  0  0
 12 18  1  0  0  0  0
 13 16  2  0  0  0  0
 15 16  1  0  0  0  0
 17 20  1  0  0  0  0
 19 21  2  0  0  0  0
 19 22  1  0  0  0  0
 22 23  2  0  0  0  0
 23 24  1  0  0  0  0
M  END
> <From>
www.bindingDB.org

> <BindingDB Reactant_set_id>
95262

> <Ligand InChI>
InChI=1S/C15H11F3N2O3S/c1-9(21)20(12-4-2-3-10(7-12)15(16,17)18)14-19-11(8-24-14)5-6-13(22)23/h2-8H,1H3,(H,22,23)/b6-5+

> <Ligand InChI Key>
XMCXTGRBAIZQCC-AATRIKPKSA-N

> <BindingDB MonomerID>
43841

> <BindingDB Ligand Name>
(E)-3-[2-[N-acetyl-3-(trifluoromethyl)anilino]-1,3-thiazol-4-yl]prop-2-enoic acid::(E)-3-[2-[N-acetyl-3-(trifluoromethyl)anilino]-4-thiazolyl]-2-propenoic acid::(E)-3-[2-[N-acetyl-3-(trifluoromethyl)anilino]thiazol-4-yl]acrylic acid::(E)-3-[2-[ethanoyl-[3-(trifluoromethyl)phenyl]amino]-1,3-thiazol-4-yl]prop-2-enoic acid::Acid, 23::MLS000773851::SMR000364678::cid_2513489

> <Target Name>
DNA repair protein RAD51 homolog 1

> <Target Source Organism According to Curator or DataSource>
Homo sapiens

> <Ki (nM)>


> <IC50 (nM)>
 53000

> <Kd (nM)>


> <EC50 (nM)>


> <kon (M-1-s-1)>


> <koff (s-1)>


> <pH>


> <Temp C>


> <Curation/DataSource>
PubChem

> <Article DOI>


> <BindingDB Entry DOI>
10.7270/Q2QN6558

> <PMID>


> <PubChem AID>
aid1437

> <Patent Number>


> <Authors>
PubChem, PC

> <Date of publication>
11/25/2008

> <Date in BindingDB>
5/31/2011

> <Institution>
PCMD

> <Link to Ligand in BindingDB>
http://www.bindingdb.org/bind/chemsearch/marvin/MolStructure.jsp?monomerid=43841

> <Link to Ligand-Target Pair in BindingDB>
http://www.bindingdb.org/jsp/dbsearch/PrimarySearch_ki.jsp?energyterm=kJ/mole&tag=pol&polymerid=4676&target=DNA+repair+protein+RAD51+homolog+1&column=ki&startPg=0&Increment=50&submit=Search

> <Link to Ligand-Target Pair in BindingDB>
http://www.bindingdb.org/jsp/dbsearch/PrimarySearch_ki.jsp?energyterm=kJ/mole&tag=r21&monomerid=43841&enzyme=DNA+repair+protein+RAD51+homolog+1&column=ki&startPg=0&Increment=50&submit=Search

> <Ligand HET ID in PDB>


> <PDB ID(s) for Ligand-Target Complex>


> <PubChem CID of Ligand>
2513489

> <PubChem SID of Ligand>
123080199

> <ChEBI ID of Ligand>


> <ChEMBL ID of Ligand>


> <DrugBank ID of Ligand>


> <IUPHAR_GRAC ID of Ligand>


> <KEGG ID of Ligand>


> <ZINC ID of Ligand>
ZINC03394979

> <Number of Protein Chains in Target (bigger than 1 implies a multichain complex)>
1

> <BindingDB Target Chain Sequence>
MAMQMQLEANADTSVEEESFGPQPISRLEQCGINANDVKKLEEAGFHTVEAVAYAPKKELINIKGISEAKADKILAEAAKLVPMGFTTATEFHQRRSEIIQITTGSKELDKLLQGGIETGSITEMFGEFRTGKTQICHTLAVTCQLPIDRGGGEGKAMYIDTEGTFRPERLLAVAERYGLSGSDVLDNVAYARAFNTDHQTQLLYQASAMMVESRYALLIVDSATALYRTDYSGRGELSARQMHLARFLRMLLRLADEFGVAVVITNQVVAQVDGAAMFAADPKKPIGGNIIAHASTTRLYLRKGRGETRICKIYDSPCLPEAEAMFAINADGVGDAKD

> <PDB ID(s) of Target Chain>
1N0W,5JZC,5NP7,5NWL,8BQ2,8BR2,8BSC

> <UniProt (SwissProt) Recommended Name of Target Chain>
DNA repair protein RAD51 homolog 1

> <UniProt (SwissProt) Entry Name of Target Chain>
RAD51_HUMAN

> <UniProt (SwissProt) Primary ID of Target Chain>
Q06609

> <UniProt (SwissProt) Secondary ID(s) of Target Chain>
B0FXP0 B2R8T6 Q6FHX9 Q6ZNA8 Q9BV60

> <UniProt (SwissProt) Alternative ID(s) of Target Chain>


> <UniProt (TrEMBL) Submitted Name of Target Chain>


> <UniProt (TrEMBL) Entry Name of Target Chain>


> <UniProt (TrEMBL) Primary ID of Target Chain>


> <UniProt (TrEMBL) Secondary ID(s) of Target Chain>


> <UniProt (TrEMBL) Alternative ID(s) of Target Chain>


$$$$
4409405
  Mrv0541 11251415482D          

 30 33  0  0  1  0            999 V2000
    2.4347    0.3340    0.0000 S   0  0  0  0  0  0  0  0  0  0  0  0
    6.3102    0.5245    0.0000 S   0  0  0  0  0  0  0  0  0  0  0  0
    1.6500    0.0790    0.0000 O   0  0  0  0  0  0  0  0  0  0  0  0
    2.4347   -0.4910    0.0000 O   0  0  0  0  0  0  0  0  0  0  0  0
    4.7409    0.0146    0.0000 O   0  0  0  0  0  0  0  0  0  0  0  0
    4.2993    1.3736    0.0000 N   0  0  0  0  0  0  0  0  0  0  0  0
    7.7623    0.2944    0.0000 N   0  0  0  0  0  0  0  0  0  0  0  0
    7.3498    1.5641    0.0000 N   0  0  0  0  0  0  0  0  0  0  0  0
    8.1748    1.5641    0.0000 N   0  0  0  0  0  0  0  0  0  0  0  0
   10.7836    0.0146    0.0000 N   0  0  0  0  0  0  0  0  0  0  0  0
    3.5147    1.1186    0.0000 C   0  0  0  0  0  0  0  0  0  0  0  0
    3.2597    0.3340    0.0000 C   0  0  0  0  0  0  0  0  0  0  0  0
    2.8472    1.6036    0.0000 C   0  0  0  0  0  0  0  0  0  0  0  0
    2.1797    1.1186    0.0000 C   0  0  0  0  0  0  0  0  0  0  0  0
    4.4708    2.1806    0.0000 C   0  0  0  0  0  0  0  0  0  0  0  0
    4.9124    0.8216    0.0000 C   0  0  0  0  0  0  0  0  0  0  0  0
    5.6970    1.0765    0.0000 C   0  0  0  0  0  0  0  0  0  0  0  0
    7.0947    0.7794    0.0000 C   0  0  0  0  0  0  0  0  0  0  0  0
    8.4297    0.7794    0.0000 C   0  0  0  0  0  0  0  0  0  0  0  0
    7.7623   -0.5306    0.0000 C   0  0  0  0  0  0  0  0  0  0  0  0
    9.2143    0.5245    0.0000 C   0  0  0  0  0  0  0  0  0  0  0  0
    8.4767   -0.9431    0.0000 C   0  0  0  0  0  0  0  0  0  0  0  0
    7.0477   -0.9431    0.0000 C   0  0  0  0  0  0  0  0  0  0  0  0
    9.3858   -0.2826    0.0000 C   0  0  0  0  0  0  0  0  0  0  0  0
    9.8275    1.0765    0.0000 C   0  0  0  0  0  0  0  0  0  0  0  0
    8.4767   -1.7681    0.0000 C   0  0  0  0  0  0  0  0  0  0  0  0
    7.0477   -1.7681    0.0000 C   0  0  0  0  0  0  0  0  0  0  0  0
    7.7623   -2.1806    0.0000 C   0  0  0  0  0  0  0  0  0  0  0  0
   10.1705   -0.5375    0.0000 C   0  0  0  0  0  0  0  0  0  0  0  0
   10.6120    0.8216    0.0000 C   0  0  0  0  0  0  0  0  0  0  0  0
  1  3  2  0  0  0  0
  1  4  2  0  0  0  0
  1 12  1  0  0  0  0
  1 14  1  0  0  0  0
  2 17  1  0  0  0  0
  2 18  1  0  0  0  0
  5 16  2  0  0  0  0
  6 11  1  0  0  0  0
  6 15  1  0  0  0  0
  6 16  1  0  0  0  0
  7 18  1  0  0  0  0
  7 19  1  0  0  0  0
  7 20  1  0  0  0  0
  8  9  1  0  0  0  0
  8 18  2  0  0  0  0
  9 19  2  0  0  0  0
 10 29  2  0  0  0  0
 10 30  1  0  0  0  0
 11 12  1  0  0  0  0
 11 13  1  0  0  0  0
 13 14  1  0  0  0  0
 16 17  1  0  0  0  0
 19 21  1  0  0  0  0
 20 22  2  0  0  0  0
 20 23  1  0  0  0  0
 21 24  2  0  0  0  0
 21 25  1  0  0  0  0
 22 26  1  0  0  0  0
 23 27  2  0  0  0  0
 24 29  1  0  0  0  0
 25 30  2  0  0  0  0
 26 28  2  0  0  0  0
 27 28  1  0  0  0  0
M  END
> <From>
www.bindingDB.org

> <BindingDB Reactant_set_id>
95263

> <Ligand InChI>
InChI=1S/C20H21N5O3S2/c1-24(17-9-12-30(27,28)14-17)18(26)13-29-20-23-22-19(15-7-10-21-11-8-15)25(20)16-5-3-2-4-6-16/h2-8,10-11,17H,9,12-14H2,1H3

> <Ligand InChI Key>
XZYHDXZNNDZXSR-UHFFFAOYSA-N

> <BindingDB MonomerID>
43842

> <BindingDB Ligand Name>
Acid, 24::MLS001010895::N-(1,1-diketothiolan-3-yl)-N-methyl-2-[[4-phenyl-5-(4-pyridyl)-1,2,4-triazol-3-yl]thio]acetamide::N-(1,1-dioxo-3-thiolanyl)-N-methyl-2-[(4-phenyl-5-pyridin-4-yl-1,2,4-triazol-3-yl)thio]acetamide::N-(1,1-dioxothiolan-3-yl)-N-methyl-2-[(4-phenyl-5-pyridin-4-yl-1,2,4-triazol-3-yl)sulfanyl]acetamide::N-[1,1-bis(oxidanylidene)thiolan-3-yl]-N-methyl-2-[(4-phenyl-5-pyridin-4-yl-1,2,4-triazol-3-yl)sulfanyl]ethanamide::SMR000352944::cid_4409405

> <Target Name>
DNA repair protein RAD51 homolog 1

> <Target Source Organism According to Curator or DataSource>
Homo sapiens

> <Ki (nM)>


> <IC50 (nM)>
 53000

> <Kd (nM)>


> <EC50 (nM)>


> <kon (M-1-s-1)>


> <koff (s-1)>


> <pH>


> <Temp C>


> <Curation/DataSource>
PubChem

> <Article DOI>


> <BindingDB Entry DOI>
10.7270/Q2QN6558

> <PMID>


> <PubChem AID>
aid1437

> <Patent Number>


> <Authors>
PubChem, PC

> <Date of publication>
11/25/2008

> <Date in BindingDB>
5/31/2011

> <Institution>
PCMD

> <Link to Ligand in BindingDB>
http://www.bindingdb.org/bind/chemsearch/marvin/MolStructure.jsp?monomerid=43842

> <Link to Ligand-Target Pair in BindingDB>
http://www.bindingdb.org/jsp/dbsearch/PrimarySearch_ki.jsp?energyterm=kJ/mole&tag=pol&polymerid=4676&target=DNA+repair+protein+RAD51+homolog+1&column=ki&startPg=0&Increment=50&submit=Search

> <Link to Ligand-Target Pair in BindingDB>
http://www.bindingdb.org/jsp/dbsearch/PrimarySearch_ki.jsp?energyterm=kJ/mole&tag=r21&monomerid=43842&enzyme=DNA+repair+protein+RAD51+homolog+1&column=ki&startPg=0&Increment=50&submit=Search

> <Ligand HET ID in PDB>


> <PDB ID(s) for Ligand-Target Complex>


> <PubChem CID of Ligand>
4409405

> <PubChem SID of Ligand>
123080200

> <ChEBI ID of Ligand>


> <ChEMBL ID of Ligand>


> <DrugBank ID of Ligand>


> <IUPHAR_GRAC ID of Ligand>


> <KEGG ID of Ligand>


> <ZINC ID of Ligand>
ZINC09662819

> <Number of Protein Chains in Target (bigger than 1 implies a multichain complex)>
1

> <BindingDB Target Chain Sequence>
MAMQMQLEANADTSVEEESFGPQPISRLEQCGINANDVKKLEEAGFHTVEAVAYAPKKELINIKGISEAKADKILAEAAKLVPMGFTTATEFHQRRSEIIQITTGSKELDKLLQGGIETGSITEMFGEFRTGKTQICHTLAVTCQLPIDRGGGEGKAMYIDTEGTFRPERLLAVAERYGLSGSDVLDNVAYARAFNTDHQTQLLYQASAMMVESRYALLIVDSATALYRTDYSGRGELSARQMHLARFLRMLLRLADEFGVAVVITNQVVAQVDGAAMFAADPKKPIGGNIIAHASTTRLYLRKGRGETRICKIYDSPCLPEAEAMFAINADGVGDAKD

> <PDB ID(s) of Target Chain>
1N0W,5JZC,5NP7,5NWL,8BQ2,8BR2,8BSC

> <UniProt (SwissProt) Recommended Name of Target Chain>
DNA repair protein RAD51 homolog 1

> <UniProt (SwissProt) Entry Name of Target Chain>
RAD51_HUMAN

> <UniProt (SwissProt) Primary ID of Target Chain>
Q06609

> <UniProt (SwissProt) Secondary ID(s) of Target Chain>
B0FXP0 B2R8T6 Q6FHX9 Q6ZNA8 Q9BV60

> <UniProt (SwissProt) Alternative ID(s) of Target Chain>


> <UniProt (TrEMBL) Submitted Name of Target Chain>


> <UniProt (TrEMBL) Entry Name of Target Chain>


> <UniProt (TrEMBL) Primary ID of Target Chain>


> <UniProt (TrEMBL) Secondary ID(s) of Target Chain>


> <UniProt (TrEMBL) Alternative ID(s) of Target Chain>


$$$$
 
  Mrv0541 11221423072D          

 18 19  0  0  0  0            999 V2000
   12.6996   -5.8945    0.0000 C   0  0  0  0  0  0  0  0  0  0  0  0
   11.9850   -6.3069    0.0000 C   0  0  0  0  0  0  0  0  0  0  0  0
   11.2682   -5.8944    0.0000 C   0  0  0  0  0  0  0  0  0  0  0  0
   10.5537   -6.3068    0.0000 C   0  0  0  0  0  0  0  0  0  0  0  0
   10.5599   -7.1276    0.0000 C   0  0  0  0  0  0  0  0  0  0  0  0
   11.2671   -7.5386    0.0000 N   0  0  0  0  0  0  0  0  0  0  0  0
   11.9816   -7.1262    0.0000 C   0  0  0  0  0  0  0  0  0  0  0  0
   12.7010   -5.0677    0.0000 O   0  0  0  0  0  0  0  0  0  0  0  0
   13.4143   -6.3035    0.0000 N   0  0  0  0  0  0  0  0  0  0  0  0
   14.1249   -5.8911    0.0000 C   0  0  0  0  0  0  0  0  0  0  0  0
   14.8380   -6.3056    0.0000 C   0  0  0  0  0  0  0  0  0  0  0  0
   16.9778   -5.0684    0.0000 O   0  0  0  0  0  0  0  0  0  0  0  0
   16.2686   -4.6539    0.0000 C   0  0  0  0  0  0  0  0  0  0  0  0
   15.5540   -5.0664    0.0000 C   0  0  0  0  0  0  0  0  0  0  0  0
   15.5526   -5.8931    0.0000 N   0  0  0  0  0  0  0  0  0  0  0  0
   16.2694   -6.3057    0.0000 C   0  0  0  0  0  0  0  0  0  0  0  0
   16.9839   -5.8932    0.0000 C   0  0  0  0  0  0  0  0  0  0  0  0
    9.8429   -7.5439    0.0000 Cl  0  0  0  0  0  0  0  0  0  0  0  0
  1  2  1  0  0  0  0
  2  3  2  0  0  0  0
  3  4  1  0  0  0  0
  4  5  2  0  0  0  0
  5  6  1  0  0  0  0
  6  7  2  0  0  0  0
  2  7  1  0  0  0  0
  1  8  2  0  0  0  0
  1  9  1  0  0  0  0
 10 11  1  0  0  0  0
 12 13  1  0  0  0  0
 13 14  1  0  0  0  0
 14 15  1  0  0  0  0
 15 16  1  0  0  0  0
 16 17  1  0  0  0  0
 12 17  1  0  0  0  0
 11 15  1  0  0  0  0
  9 10  1  0  0  0  0
  5 18  1  0  0  0  0
M  END
> <From>
www.bindingDB.org

> <BindingDB Reactant_set_id>
95264

> <Ligand InChI>
InChI=1S/C12H16ClN3O2/c13-11-2-1-10(9-15-11)12(17)14-3-4-16-5-7-18-8-6-16/h1-2,9H,3-8H2,(H,14,17)

> <Ligand InChI Key>
DWSIBMFUHQAQMK-UHFFFAOYSA-N

> <BindingDB MonomerID>
50307188

> <BindingDB Ligand Name>
6-Chloro-N-(2-morpholinoethyl)nicotinamide::CHEMBL596768::cid_1228702

> <Target Name>
DNA repair protein RAD51 homolog 1

> <Target Source Organism According to Curator or DataSource>
Homo sapiens

> <Ki (nM)>


> <IC50 (nM)>
 53000

> <Kd (nM)>


> <EC50 (nM)>


> <kon (M-1-s-1)>


> <koff (s-1)>


> <pH>


> <Temp C>


> <Curation/DataSource>
PubChem

> <Article DOI>


> <BindingDB Entry DOI>
10.7270/Q2QN6558

> <PMID>


> <PubChem AID>
aid1437

> <Patent Number>


> <Authors>
PubChem, PC

> <Date of publication>
11/25/2008

> <Date in BindingDB>
5/31/2011

> <Institution>
PCMD

> <Link to Ligand in BindingDB>
http://www.bindingdb.org/bind/chemsearch/marvin/MolStructure.jsp?monomerid=50307188

> <Link to Ligand-Target Pair in BindingDB>
http://www.bindingdb.org/jsp/dbsearch/PrimarySearch_ki.jsp?energyterm=kJ/mole&tag=pol&polymerid=4676&target=DNA+repair+protein+RAD51+homolog+1&column=ki&startPg=0&Increment=50&submit=Search

> <Link to Ligand-Target Pair in BindingDB>
http://www.bindingdb.org/jsp/dbsearch/PrimarySearch_ki.jsp?energyterm=kJ/mole&tag=r21&monomerid=50307188&enzyme=DNA+repair+protein+RAD51+homolog+1&column=ki&startPg=0&Increment=50&submit=Search

> <Ligand HET ID in PDB>


> <PDB ID(s) for Ligand-Target Complex>


> <PubChem CID of Ligand>
1228702

> <PubChem SID of Ligand>
104161549

> <ChEBI ID of Ligand>


> <ChEMBL ID of Ligand>
CHEMBL596768

> <DrugBank ID of Ligand>


> <IUPHAR_GRAC ID of Ligand>


> <KEGG ID of Ligand>


> <ZINC ID of Ligand>
ZINC19397174

> <Number of Protein Chains in Target (bigger than 1 implies a multichain complex)>
1

> <BindingDB Target Chain Sequence>
MAMQMQLEANADTSVEEESFGPQPISRLEQCGINANDVKKLEEAGFHTVEAVAYAPKKELINIKGISEAKADKILAEAAKLVPMGFTTATEFHQRRSEIIQITTGSKELDKLLQGGIETGSITEMFGEFRTGKTQICHTLAVTCQLPIDRGGGEGKAMYIDTEGTFRPERLLAVAERYGLSGSDVLDNVAYARAFNTDHQTQLLYQASAMMVESRYALLIVDSATALYRTDYSGRGELSARQMHLARFLRMLLRLADEFGVAVVITNQVVAQVDGAAMFAADPKKPIGGNIIAHASTTRLYLRKGRGETRICKIYDSPCLPEAEAMFAINADGVGDAKD

> <PDB ID(s) of Target Chain>
1N0W,5JZC,5NP7,5NWL,8BQ2,8BR2,8BSC

> <UniProt (SwissProt) Recommended Name of Target Chain>
DNA repair protein RAD51 homolog 1

> <UniProt (SwissProt) Entry Name of Target Chain>
RAD51_HUMAN

> <UniProt (SwissProt) Primary ID of Target Chain>
Q06609

> <UniProt (SwissProt) Secondary ID(s) of Target Chain>
B0FXP0 B2R8T6 Q6FHX9 Q6ZNA8 Q9BV60

> <UniProt (SwissProt) Alternative ID(s) of Target Chain>


> <UniProt (TrEMBL) Submitted Name of Target Chain>


> <UniProt (TrEMBL) Entry Name of Target Chain>


> <UniProt (TrEMBL) Primary ID of Target Chain>


> <UniProt (TrEMBL) Secondary ID(s) of Target Chain>


> <UniProt (TrEMBL) Alternative ID(s) of Target Chain>


$$$$
5940518
  Mrv0541 11251415482D          

 23 25  0  0  0  0            999 V2000
    6.1596    0.2176    0.0000 O   0  0  0  0  0  0  0  0  0  0  0  0
    5.7181   -1.1414    0.0000 O   0  0  0  0  0  0  0  0  0  0  0  0
    2.2843    0.4080    0.0000 N   0  0  0  0  0  0  0  0  0  0  0  0
    2.0293   -0.3766    0.0000 N   0  0  0  0  0  0  0  0  0  0  0  0
    3.4113   -2.9240    0.0000 N   0  0  0  0  0  0  0  0  0  0  0  0
    1.7993    1.0755    0.0000 C   0  0  0  0  0  0  0  0  0  0  0  0
    2.6968   -0.8615    0.0000 C   0  0  0  0  0  0  0  0  0  0  0  0
    3.3642   -0.3766    0.0000 C   0  0  0  0  0  0  0  0  0  0  0  0
    3.1093    0.4080    0.0000 C   0  0  0  0  0  0  0  0  0  0  0  0
    2.1349    1.8292    0.0000 C   0  0  0  0  0  0  0  0  0  0  0  0
    2.6968   -1.6865    0.0000 C   0  0  0  0  0  0  0  0  0  0  0  0
    4.1489   -0.6315    0.0000 C   0  0  0  0  0  0  0  0  0  0  0  0
    1.6500    2.4966    0.0000 C   0  0  0  0  0  0  0  0  0  0  0  0
    2.9554    1.9154    0.0000 C   0  0  0  0  0  0  0  0  0  0  0  0
    1.9823   -2.0990    0.0000 C   0  0  0  0  0  0  0  0  0  0  0  0
    3.4113   -2.0990    0.0000 C   0  0  0  0  0  0  0  0  0  0  0  0
    1.9855    3.2503    0.0000 C   0  0  0  0  0  0  0  0  0  0  0  0
    3.2909    2.6691    0.0000 C   0  0  0  0  0  0  0  0  0  0  0  0
    2.8061    3.3365    0.0000 C   0  0  0  0  0  0  0  0  0  0  0  0
    1.9823   -2.9240    0.0000 C   0  0  0  0  0  0  0  0  0  0  0  0
    4.7619   -0.0794    0.0000 C   0  0  0  0  0  0  0  0  0  0  0  0
    2.6968   -3.3365    0.0000 C   0  0  0  0  0  0  0  0  0  0  0  0
    5.5466   -0.3345    0.0000 C   0  0  0  0  0  0  0  0  0  0  0  0
  1 23  1  0  0  0  0
  2 23  2  0  0  0  0
  3  4  1  0  0  0  0
  3  6  1  0  0  0  0
  3  9  1  0  0  0  0
  4  7  2  0  0  0  0
  5 16  2  0  0  0  0
  5 22  1  0  0  0  0
  6 10  1  0  0  0  0
  7  8  1  0  0  0  0
  7 11  1  0  0  0  0
  8  9  2  0  0  0  0
  8 12  1  0  0  0  0
 10 13  2  0  0  0  0
 10 14  1  0  0  0  0
 11 15  2  0  0  0  0
 11 16  1  0  0  0  0
 12 21  2  0  0  0  0
 13 17  1  0  0  0  0
 14 18  2  0  0  0  0
 15 20  1  0  0  0  0
 17 19  2  0  0  0  0
 18 19  1  0  0  0  0
 20 22  2  0  0  0  0
 21 23  1  0  0  0  0
M  END
> <From>
www.bindingDB.org

> <BindingDB Reactant_set_id>
95265

> <Ligand InChI>
InChI=1S/C18H15N3O2/c22-17(23)9-8-16-13-21(12-14-5-2-1-3-6-14)20-18(16)15-7-4-10-19-11-15/h1-11,13H,12H2,(H,22,23)/b9-8+

> <Ligand InChI Key>
OXIKLRTYAYRAOE-CMDGGOBGSA-N

> <BindingDB MonomerID>
43843

> <BindingDB Ligand Name>
(E)-3-(1-benzyl-3-pyridin-3-ylpyrazol-4-yl)prop-2-enoic acid::(E)-3-[1-(phenylmethyl)-3-(3-pyridinyl)-4-pyrazolyl]-2-propenoic acid::(E)-3-[1-(phenylmethyl)-3-pyridin-3-yl-pyrazol-4-yl]prop-2-enoic acid::(E)-3-[1-benzyl-3-(3-pyridyl)pyrazol-4-yl]acrylic acid::Acid, 25::MLS000773816::SMR000364660::cid_5940518

> <Target Name>
DNA repair protein RAD51 homolog 1

> <Target Source Organism According to Curator or DataSource>
Homo sapiens

> <Ki (nM)>


> <IC50 (nM)>
 53000

> <Kd (nM)>


> <EC50 (nM)>


> <kon (M-1-s-1)>


> <koff (s-1)>


> <pH>


> <Temp C>


> <Curation/DataSource>
PubChem

> <Article DOI>


> <BindingDB Entry DOI>
10.7270/Q2QN6558

> <PMID>


> <PubChem AID>
aid1437

> <Patent Number>


> <Authors>
PubChem, PC

> <Date of publication>
11/25/2008

> <Date in BindingDB>
5/31/2011

> <Institution>
PCMD

> <Link to Ligand in BindingDB>
http://www.bindingdb.org/bind/chemsearch/marvin/MolStructure.jsp?monomerid=43843

> <Link to Ligand-Target Pair in BindingDB>
http://www.bindingdb.org/jsp/dbsearch/PrimarySearch_ki.jsp?energyterm=kJ/mole&tag=pol&polymerid=4676&target=DNA+repair+protein+RAD51+homolog+1&column=ki&startPg=0&Increment=50&submit=Search

> <Link to Ligand-Target Pair in BindingDB>
http://www.bindingdb.org/jsp/dbsearch/PrimarySearch_ki.jsp?energyterm=kJ/mole&tag=r21&monomerid=43843&enzyme=DNA+repair+protein+RAD51+homolog+1&column=ki&startPg=0&Increment=50&submit=Search

> <Ligand HET ID in PDB>


> <PDB ID(s) for Ligand-Target Complex>


> <PubChem CID of Ligand>
5940518

> <PubChem SID of Ligand>
123080201

> <ChEBI ID of Ligand>


> <ChEMBL ID of Ligand>


> <DrugBank ID of Ligand>


> <IUPHAR_GRAC ID of Ligand>


> <KEGG ID of Ligand>


> <ZINC ID of Ligand>
ZINC03887821

> <Number of Protein Chains in Target (bigger than 1 implies a multichain complex)>
1

> <BindingDB Target Chain Sequence>
MAMQMQLEANADTSVEEESFGPQPISRLEQCGINANDVKKLEEAGFHTVEAVAYAPKKELINIKGISEAKADKILAEAAKLVPMGFTTATEFHQRRSEIIQITTGSKELDKLLQGGIETGSITEMFGEFRTGKTQICHTLAVTCQLPIDRGGGEGKAMYIDTEGTFRPERLLAVAERYGLSGSDVLDNVAYARAFNTDHQTQLLYQASAMMVESRYALLIVDSATALYRTDYSGRGELSARQMHLARFLRMLLRLADEFGVAVVITNQVVAQVDGAAMFAADPKKPIGGNIIAHASTTRLYLRKGRGETRICKIYDSPCLPEAEAMFAINADGVGDAKD

> <PDB ID(s) of Target Chain>
1N0W,5JZC,5NP7,5NWL,8BQ2,8BR2,8BSC

> <UniProt (SwissProt) Recommended Name of Target Chain>
DNA repair protein RAD51 homolog 1

> <UniProt (SwissProt) Entry Name of Target Chain>
RAD51_HUMAN

> <UniProt (SwissProt) Primary ID of Target Chain>
Q06609

> <UniProt (SwissProt) Secondary ID(s) of Target Chain>
B0FXP0 B2R8T6 Q6FHX9 Q6ZNA8 Q9BV60

> <UniProt (SwissProt) Alternative ID(s) of Target Chain>


> <UniProt (TrEMBL) Submitted Name of Target Chain>


> <UniProt (TrEMBL) Entry Name of Target Chain>


> <UniProt (TrEMBL) Primary ID of Target Chain>


> <UniProt (TrEMBL) Secondary ID(s) of Target Chain>


> <UniProt (TrEMBL) Alternative ID(s) of Target Chain>


$$$$
2108293
  Mrv0541 11251415482D          

 25 27  0  0  0  0            999 V2000
    1.6500   -1.7485    0.0000 F   0  0  0  0  0  0  0  0  0  0  0  0
    3.0790    0.7266    0.0000 O   0  0  0  0  0  0  0  0  0  0  0  0
    5.4012    1.7186    0.0000 N   0  0  0  0  0  0  0  0  0  0  0  0
    5.8137    1.0041    0.0000 N   0  0  0  0  0  0  0  0  0  0  0  0
    3.7935   -0.5109    0.0000 N   0  0  0  0  0  0  0  0  0  0  0  0
    4.5942    1.5471    0.0000 C   0  0  0  0  0  0  0  0  0  0  0  0
    4.5080    0.7266    0.0000 C   0  0  0  0  0  0  0  0  0  0  0  0
    5.7368    2.4723    0.0000 C   0  0  0  0  0  0  0  0  0  0  0  0
    5.2616    0.3911    0.0000 C   0  0  0  0  0  0  0  0  0  0  0  0
    6.5572    2.5585    0.0000 C   0  0  0  0  0  0  0  0  0  0  0  0
    3.9811    2.0992    0.0000 C   0  0  0  0  0  0  0  0  0  0  0  0
    3.7935    0.3141    0.0000 C   0  0  0  0  0  0  0  0  0  0  0  0
    5.4332   -0.4160    0.0000 C   0  0  0  0  0  0  0  0  0  0  0  0
    3.0790   -0.9234    0.0000 C   0  0  0  0  0  0  0  0  0  0  0  0
    7.0422    1.8911    0.0000 C   0  0  0  0  0  0  0  0  0  0  0  0
    6.8929    3.3123    0.0000 C   0  0  0  0  0  0  0  0  0  0  0  0
    3.0790   -1.7485    0.0000 C   0  0  0  0  0  0  0  0  0  0  0  0
    7.8627    1.9773    0.0000 C   0  0  0  0  0  0  0  0  0  0  0  0
    7.7133    3.3985    0.0000 C   0  0  0  0  0  0  0  0  0  0  0  0
    2.3645   -2.1610    0.0000 C   0  0  0  0  0  0  0  0  0  0  0  0
    3.7935   -2.1610    0.0000 C   0  0  0  0  0  0  0  0  0  0  0  0
    8.1983    2.7311    0.0000 C   0  0  0  0  0  0  0  0  0  0  0  0
    2.3645   -2.9860    0.0000 C   0  0  0  0  0  0  0  0  0  0  0  0
    3.7935   -2.9860    0.0000 C   0  0  0  0  0  0  0  0  0  0  0  0
    3.0790   -3.3985    0.0000 C   0  0  0  0  0  0  0  0  0  0  0  0
  1 20  1  0  0  0  0
  2 12  2  0  0  0  0
  3  4  1  0  0  0  0
  3  6  1  0  0  0  0
  3  8  1  0  0  0  0
  4  9  2  0  0  0  0
  5 12  1  0  0  0  0
  5 14  1  0  0  0  0
  6  7  2  0  0  0  0
  6 11  1  0  0  0  0
  7  9  1  0  0  0  0
  7 12  1  0  0  0  0
  8 10  1  0  0  0  0
  9 13  1  0  0  0  0
 10 15  2  0  0  0  0
 10 16  1  0  0  0  0
 14 17  1  0  0  0  0
 15 18  1  0  0  0  0
 16 19  2  0  0  0  0
 17 20  2  0  0  0  0
 17 21  1  0  0  0  0
 18 22  2  0  0  0  0
 19 22  1  0  0  0  0
 20 23  1  0  0  0  0
 21 24  2  0  0  0  0
 23 25  2  0  0  0  0
 24 25  1  0  0  0  0
M  END
> <From>
www.bindingDB.org

> <BindingDB Reactant_set_id>
95266

> <Ligand InChI>
InChI=1S/C20H20FN3O/c1-14-19(20(25)22-12-17-10-6-7-11-18(17)21)15(2)24(23-14)13-16-8-4-3-5-9-16/h3-11H,12-13H2,1-2H3,(H,22,25)

> <Ligand InChI Key>
HDZNCKLMVPZWDN-UHFFFAOYSA-N

> <BindingDB MonomerID>
43844

> <BindingDB Ligand Name>
1-benzyl-N-(2-fluorobenzyl)-3,5-dimethyl-pyrazole-4-carboxamide::1-benzyl-N-[(2-fluorophenyl)methyl]-3,5-dimethylpyrazole-4-carboxamide::Acid, 44::MLS000771716::N-[(2-fluorophenyl)methyl]-3,5-dimethyl-1-(phenylmethyl)-4-pyrazolecarboxamide::N-[(2-fluorophenyl)methyl]-3,5-dimethyl-1-(phenylmethyl)pyrazole-4-carboxamide::SMR000376450::cid_2108293

> <Target Name>
DNA repair protein RAD51 homolog 1

> <Target Source Organism According to Curator or DataSource>
Homo sapiens

> <Ki (nM)>


> <IC50 (nM)>
 53000

> <Kd (nM)>


> <EC50 (nM)>


> <kon (M-1-s-1)>


> <koff (s-1)>


> <pH>


> <Temp C>


> <Curation/DataSource>
PubChem

> <Article DOI>


> <BindingDB Entry DOI>
10.7270/Q2QN6558

> <PMID>


> <PubChem AID>
aid1437

> <Patent Number>


> <Authors>
PubChem, PC

> <Date of publication>
11/25/2008

> <Date in BindingDB>
5/31/2011

> <Institution>
PCMD

> <Link to Ligand in BindingDB>
http://www.bindingdb.org/bind/chemsearch/marvin/MolStructure.jsp?monomerid=43844

> <Link to Ligand-Target Pair in BindingDB>
http://www.bindingdb.org/jsp/dbsearch/PrimarySearch_ki.jsp?energyterm=kJ/mole&tag=pol&polymerid=4676&target=DNA+repair+protein+RAD51+homolog+1&column=ki&startPg=0&Increment=50&submit=Search

> <Link to Ligand-Target Pair in BindingDB>
http://www.bindingdb.org/jsp/dbsearch/PrimarySearch_ki.jsp?energyterm=kJ/mole&tag=r21&monomerid=43844&enzyme=DNA+repair+protein+RAD51+homolog+1&column=ki&startPg=0&Increment=50&submit=Search

> <Ligand HET ID in PDB>


> <PDB ID(s) for Ligand-Target Complex>


> <PubChem CID of Ligand>
2108293

> <PubChem SID of Ligand>
123080202

> <ChEBI ID of Ligand>


> <ChEMBL ID of Ligand>


> <DrugBank ID of Ligand>


> <IUPHAR_GRAC ID of Ligand>


> <KEGG ID of Ligand>


> <ZINC ID of Ligand>
ZINC02645268

> <Number of Protein Chains in Target (bigger than 1 implies a multichain complex)>
1

> <BindingDB Target Chain Sequence>
MAMQMQLEANADTSVEEESFGPQPISRLEQCGINANDVKKLEEAGFHTVEAVAYAPKKELINIKGISEAKADKILAEAAKLVPMGFTTATEFHQRRSEIIQITTGSKELDKLLQGGIETGSITEMFGEFRTGKTQICHTLAVTCQLPIDRGGGEGKAMYIDTEGTFRPERLLAVAERYGLSGSDVLDNVAYARAFNTDHQTQLLYQASAMMVESRYALLIVDSATALYRTDYSGRGELSARQMHLARFLRMLLRLADEFGVAVVITNQVVAQVDGAAMFAADPKKPIGGNIIAHASTTRLYLRKGRGETRICKIYDSPCLPEAEAMFAINADGVGDAKD

> <PDB ID(s) of Target Chain>
1N0W,5JZC,5NP7,5NWL,8BQ2,8BR2,8BSC

> <UniProt (SwissProt) Recommended Name of Target Chain>
DNA repair protein RAD51 homolog 1

> <UniProt (SwissProt) Entry Name of Target Chain>
RAD51_HUMAN

> <UniProt (SwissProt) Primary ID of Target Chain>
Q06609

> <UniProt (SwissProt) Secondary ID(s) of Target Chain>
B0FXP0 B2R8T6 Q6FHX9 Q6ZNA8 Q9BV60

> <UniProt (SwissProt) Alternative ID(s) of Target Chain>


> <UniProt (TrEMBL) Submitted Name of Target Chain>


> <UniProt (TrEMBL) Entry Name of Target Chain>


> <UniProt (TrEMBL) Primary ID of Target Chain>


> <UniProt (TrEMBL) Secondary ID(s) of Target Chain>


> <UniProt (TrEMBL) Alternative ID(s) of Target Chain>


$$$$
4110203
  Mrv0541 11251415482D          

 22 23  0  0  0  0            999 V2000
    2.2412   -1.5273    0.0000 Cl  0  0  0  0  0  0  0  0  0  0  0  0
    2.2021    1.8497    0.0000 O   0  0  0  0  0  0  0  0  0  0  0  0
    5.0993    1.7728    0.0000 O   0  0  0  0  0  0  0  0  0  0  0  0
    5.8137    0.5353    0.0000 O   0  0  0  0  0  0  0  0  0  0  0  0
    3.6703    0.9478    0.0000 N   0  0  0  0  0  0  0  0  0  0  0  0
    4.3847   -0.2897    0.0000 N   0  0  0  0  0  0  0  0  0  0  0  0
    3.6703   -0.7023    0.0000 N   0  0  0  0  0  0  0  0  0  0  0  0
    2.9558    2.1853    0.0000 C   0  0  0  0  0  0  0  0  0  0  0  0
    2.8696    3.0058    0.0000 C   0  0  0  0  0  0  0  0  0  0  0  0
    2.0625    3.1773    0.0000 C   0  0  0  0  0  0  0  0  0  0  0  0
    1.6500    2.4628    0.0000 C   0  0  0  0  0  0  0  0  0  0  0  0
    3.6703    1.7728    0.0000 C   0  0  0  0  0  0  0  0  0  0  0  0
    4.3847    0.5353    0.0000 C   0  0  0  0  0  0  0  0  0  0  0  0
    5.0993    0.9478    0.0000 C   0  0  0  0  0  0  0  0  0  0  0  0
    3.6703   -1.5273    0.0000 C   0  0  0  0  0  0  0  0  0  0  0  0
    2.9558   -1.9398    0.0000 C   0  0  0  0  0  0  0  0  0  0  0  0
    4.3847   -1.9398    0.0000 C   0  0  0  0  0  0  0  0  0  0  0  0
    5.8137    2.1853    0.0000 C   0  0  0  0  0  0  0  0  0  0  0  0
    2.9558   -2.7648    0.0000 C   0  0  0  0  0  0  0  0  0  0  0  0
    4.3847   -2.7648    0.0000 C   0  0  0  0  0  0  0  0  0  0  0  0
    3.6703   -3.1773    0.0000 C   0  0  0  0  0  0  0  0  0  0  0  0
    5.8137    3.0103    0.0000 C   0  0  0  0  0  0  0  0  0  0  0  0
  1 16  1  0  0  0  0
  2  8  1  0  0  0  0
  2 11  1  0  0  0  0
  3 14  1  0  0  0  0
  3 18  1  0  0  0  0
  4 14  2  0  0  0  0
  5 12  1  4  0  0  0
  5 13  2  0  0  0  0
  6  7  1  0  0  0  0
  6 13  1  0  0  0  0
  7 15  1  0  0  0  0
  8  9  1  0  0  0  0
  8 12  1  0  0  0  0
  9 10  1  0  0  0  0
 10 11  1  0  0  0  0
 13 14  1  0  0  0  0
 15 16  2  0  0  0  0
 15 17  1  0  0  0  0
 16 19  1  0  0  0  0
 17 20  2  0  0  0  0
 18 22  1  0  0  0  0
 19 21  2  0  0  0  0
 20 21  1  0  0  0  0
M  END
> <From>
www.bindingDB.org

> <BindingDB Reactant_set_id>
95267

> <Ligand InChI>
InChI=1S/C15H20ClN3O3/c1-2-21-15(20)14(17-10-11-6-5-9-22-11)19-18-13-8-4-3-7-12(13)16/h3-4,7-8,11,18H,2,5-6,9-10H2,1H3,(H,17,19)

> <Ligand InChI Key>
SFMPLSNCCXLXBZ-UHFFFAOYSA-N

> <BindingDB MonomerID>
43845

> <BindingDB Ligand Name>
2-[(2-chlorophenyl)hydrazo]-2-(2-oxolanylmethylimino)acetic acid ethyl ester::2-[N''''-(2-chlorophenyl)hydrazino]-2-(tetrahydrofurfurylimino)acetic acid ethyl ester::2-[N''-(2-chlorophenyl)hydrazino]-2-(tetrahydrofurfurylimino)acetic acid ethyl ester::2-[N'-(2-chlorophenyl)hydrazino]-2-(tetrahydrofurfurylimino)acetic acid ethyl ester::Acid, 53::MLS001032911::SMR000363487::cid_4110203::ethyl 2-[2-(2-chlorophenyl)hydrazinyl]-2-(oxolan-2-ylmethylimino)acetate::ethyl 2-[2-(2-chlorophenyl)hydrazinyl]-2-(oxolan-2-ylmethylimino)ethanoate

> <Target Name>
DNA repair protein RAD51 homolog 1

> <Target Source Organism According to Curator or DataSource>
Homo sapiens

> <Ki (nM)>


> <IC50 (nM)>
 53000

> <Kd (nM)>


> <EC50 (nM)>


> <kon (M-1-s-1)>


> <koff (s-1)>


> <pH>


> <Temp C>


> <Curation/DataSource>
PubChem

> <Article DOI>


> <BindingDB Entry DOI>
10.7270/Q2QN6558

> <PMID>


> <PubChem AID>
aid1437

> <Patent Number>


> <Authors>
PubChem, PC

> <Date of publication>
11/25/2008

> <Date in BindingDB>
5/31/2011

> <Institution>
PCMD

> <Link to Ligand in BindingDB>
http://www.bindingdb.org/bind/chemsearch/marvin/MolStructure.jsp?monomerid=43845

> <Link to Ligand-Target Pair in BindingDB>
http://www.bindingdb.org/jsp/dbsearch/PrimarySearch_ki.jsp?energyterm=kJ/mole&tag=pol&polymerid=4676&target=DNA+repair+protein+RAD51+homolog+1&column=ki&startPg=0&Increment=50&submit=Search

> <Link to Ligand-Target Pair in BindingDB>
http://www.bindingdb.org/jsp/dbsearch/PrimarySearch_ki.jsp?energyterm=kJ/mole&tag=r21&monomerid=43845&enzyme=DNA+repair+protein+RAD51+homolog+1&column=ki&startPg=0&Increment=50&submit=Search

> <Ligand HET ID in PDB>


> <PDB ID(s) for Ligand-Target Complex>


> <PubChem CID of Ligand>
4110203

> <PubChem SID of Ligand>
123080203

> <ChEBI ID of Ligand>


> <ChEMBL ID of Ligand>


> <DrugBank ID of Ligand>


> <IUPHAR_GRAC ID of Ligand>


> <KEGG ID of Ligand>


> <ZINC ID of Ligand>
ZINC13139501

> <Number of Protein Chains in Target (bigger than 1 implies a multichain complex)>
1

> <BindingDB Target Chain Sequence>
MAMQMQLEANADTSVEEESFGPQPISRLEQCGINANDVKKLEEAGFHTVEAVAYAPKKELINIKGISEAKADKILAEAAKLVPMGFTTATEFHQRRSEIIQITTGSKELDKLLQGGIETGSITEMFGEFRTGKTQICHTLAVTCQLPIDRGGGEGKAMYIDTEGTFRPERLLAVAERYGLSGSDVLDNVAYARAFNTDHQTQLLYQASAMMVESRYALLIVDSATALYRTDYSGRGELSARQMHLARFLRMLLRLADEFGVAVVITNQVVAQVDGAAMFAADPKKPIGGNIIAHASTTRLYLRKGRGETRICKIYDSPCLPEAEAMFAINADGVGDAKD

> <PDB ID(s) of Target Chain>
1N0W,5JZC,5NP7,5NWL,8BQ2,8BR2,8BSC

> <UniProt (SwissProt) Recommended Name of Target Chain>
DNA repair protein RAD51 homolog 1

> <UniProt (SwissProt) Entry Name of Target Chain>
RAD51_HUMAN

> <UniProt (SwissProt) Primary ID of Target Chain>
Q06609

> <UniProt (SwissProt) Secondary ID(s) of Target Chain>
B0FXP0 B2R8T6 Q6FHX9 Q6ZNA8 Q9BV60

> <UniProt (SwissProt) Alternative ID(s) of Target Chain>


> <UniProt (TrEMBL) Submitted Name of Target Chain>


> <UniProt (TrEMBL) Entry Name of Target Chain>


> <UniProt (TrEMBL) Primary ID of Target Chain>


> <UniProt (TrEMBL) Secondary ID(s) of Target Chain>


> <UniProt (TrEMBL) Alternative ID(s) of Target Chain>


$$$$
2095524
  Mrv0541 11251415482D          

 25 28  0  0  0  0            999 V2000
    8.8742   -1.2291    0.0000 S   0  0  0  0  0  0  0  0  0  0  0  0
    4.1159    2.4487    0.0000 O   0  0  0  0  0  0  0  0  0  0  0  0
    4.1159   -0.4476    0.0000 O   0  0  0  0  0  0  0  0  0  0  0  0
    6.4037   -1.1429    0.0000 O   0  0  0  0  0  0  0  0  0  0  0  0
    4.3412    1.0006    0.0000 N   0  0  0  0  0  0  0  0  0  0  0  0
    7.6412   -0.4284    0.0000 N   0  0  0  0  0  0  0  0  0  0  0  0
    7.7181   -1.8966    0.0000 N   0  0  0  0  0  0  0  0  0  0  0  0
    3.0790    1.4131    0.0000 C   0  0  0  0  0  0  0  0  0  0  0  0
    3.0790    0.5881    0.0000 C   0  0  0  0  0  0  0  0  0  0  0  0
    5.1662    1.0006    0.0000 C   0  0  0  0  0  0  0  0  0  0  0  0
    3.8597    1.6645    0.0000 C   0  0  0  0  0  0  0  0  0  0  0  0
    3.8597    0.3366    0.0000 C   0  0  0  0  0  0  0  0  0  0  0  0
    5.5787    0.2860    0.0000 C   0  0  0  0  0  0  0  0  0  0  0  0
    6.4037    0.2860    0.0000 C   0  0  0  0  0  0  0  0  0  0  0  0
    2.3645    0.1756    0.0000 C   0  0  0  0  0  0  0  0  0  0  0  0
    2.3645    1.8256    0.0000 C   0  0  0  0  0  0  0  0  0  0  0  0
    5.5787    1.7150    0.0000 C   0  0  0  0  0  0  0  0  0  0  0  0
    6.8162    1.0006    0.0000 C   0  0  0  0  0  0  0  0  0  0  0  0
    6.4037    1.7150    0.0000 C   0  0  0  0  0  0  0  0  0  0  0  0
    1.6500    1.4131    0.0000 C   0  0  0  0  0  0  0  0  0  0  0  0
    1.6500    0.5881    0.0000 C   0  0  0  0  0  0  0  0  0  0  0  0
    6.8162   -0.4284    0.0000 C   0  0  0  0  0  0  0  0  0  0  0  0
    9.0457   -2.0361    0.0000 C   0  0  0  0  0  0  0  0  0  0  0  0
    8.3313   -2.4487    0.0000 C   0  0  0  0  0  0  0  0  0  0  0  0
    8.0537   -1.1429    0.0000 C   0  0  0  0  0  0  0  0  0  0  0  0
  1 23  1  0  0  0  0
  1 25  1  0  0  0  0
  2 11  2  0  0  0  0
  3 12  2  0  0  0  0
  4 22  2  0  0  0  0
  5 10  1  0  0  0  0
  5 11  1  0  0  0  0
  5 12  1  0  0  0  0
  6 22  1  0  0  0  0
  6 25  1  0  0  0  0
  7 24  1  0  0  0  0
  7 25  2  0  0  0  0
  8  9  2  0  0  0  0
  8 11  1  0  0  0  0
  8 16  1  0  0  0  0
  9 12  1  0  0  0  0
  9 15  1  0  0  0  0
 10 13  2  0  0  0  0
 10 17  1  0  0  0  0
 13 14  1  0  0  0  0
 14 18  2  0  0  0  0
 14 22  1  0  0  0  0
 15 21  2  0  0  0  0
 16 20  2  0  0  0  0
 17 19  2  0  0  0  0
 18 19  1  0  0  0  0
 20 21  1  0  0  0  0
 23 24  1  0  0  0  0
M  END
> <From>
www.bindingDB.org

> <BindingDB Reactant_set_id>
95268

> <Ligand InChI>
InChI=1S/C18H13N3O3S/c22-15(20-18-19-8-9-25-18)11-4-3-5-12(10-11)21-16(23)13-6-1-2-7-14(13)17(21)24/h1-7,10H,8-9H2,(H,19,20,22)

> <Ligand InChI Key>
VCBXDDWTBDJIQH-UHFFFAOYSA-N

> <BindingDB MonomerID>
43846

> <BindingDB Ligand Name>
3-[1,3-bis(oxidanylidene)isoindol-2-yl]-N-(4,5-dihydro-1,3-thiazol-2-yl)benzamide::3-phthalimido-N-(2-thiazolin-2-yl)benzamide::Acid, 54::MLS000771793::N-(4,5-dihydro-1,3-thiazol-2-yl)-3-(1,3-dioxoisoindol-2-yl)benzamide::N-(4,5-dihydrothiazol-2-yl)-3-(1,3-dioxo-2-isoindolyl)benzamide::SMR000376428::cid_2095524

> <Target Name>
DNA repair protein RAD51 homolog 1

> <Target Source Organism According to Curator or DataSource>
Homo sapiens

> <Ki (nM)>


> <IC50 (nM)>
 53000

> <Kd (nM)>


> <EC50 (nM)>


> <kon (M-1-s-1)>


> <koff (s-1)>


> <pH>


> <Temp C>


> <Curation/DataSource>
PubChem

> <Article DOI>


> <BindingDB Entry DOI>
10.7270/Q2QN6558

> <PMID>


> <PubChem AID>
aid1437

> <Patent Number>


> <Authors>
PubChem, PC

> <Date of publication>
11/25/2008

> <Date in BindingDB>
5/31/2011

> <Institution>
PCMD

> <Link to Ligand in BindingDB>
http://www.bindingdb.org/bind/chemsearch/marvin/MolStructure.jsp?monomerid=43846

> <Link to Ligand-Target Pair in BindingDB>
http://www.bindingdb.org/jsp/dbsearch/PrimarySearch_ki.jsp?energyterm=kJ/mole&tag=pol&polymerid=4676&target=DNA+repair+protein+RAD51+homolog+1&column=ki&startPg=0&Increment=50&submit=Search

> <Link to Ligand-Target Pair in BindingDB>
http://www.bindingdb.org/jsp/dbsearch/PrimarySearch_ki.jsp?energyterm=kJ/mole&tag=r21&monomerid=43846&enzyme=DNA+repair+protein+RAD51+homolog+1&column=ki&startPg=0&Increment=50&submit=Search

> <Ligand HET ID in PDB>


> <PDB ID(s) for Ligand-Target Complex>


> <PubChem CID of Ligand>
2095524

> <PubChem SID of Ligand>
123080204

> <ChEBI ID of Ligand>


> <ChEMBL ID of Ligand>


> <DrugBank ID of Ligand>


> <IUPHAR_GRAC ID of Ligand>


> <KEGG ID of Ligand>


> <ZINC ID of Ligand>
ZINC02633064

> <Number of Protein Chains in Target (bigger than 1 implies a multichain complex)>
1

> <BindingDB Target Chain Sequence>
MAMQMQLEANADTSVEEESFGPQPISRLEQCGINANDVKKLEEAGFHTVEAVAYAPKKELINIKGISEAKADKILAEAAKLVPMGFTTATEFHQRRSEIIQITTGSKELDKLLQGGIETGSITEMFGEFRTGKTQICHTLAVTCQLPIDRGGGEGKAMYIDTEGTFRPERLLAVAERYGLSGSDVLDNVAYARAFNTDHQTQLLYQASAMMVESRYALLIVDSATALYRTDYSGRGELSARQMHLARFLRMLLRLADEFGVAVVITNQVVAQVDGAAMFAADPKKPIGGNIIAHASTTRLYLRKGRGETRICKIYDSPCLPEAEAMFAINADGVGDAKD

> <PDB ID(s) of Target Chain>
1N0W,5JZC,5NP7,5NWL,8BQ2,8BR2,8BSC

> <UniProt (SwissProt) Recommended Name of Target Chain>
DNA repair protein RAD51 homolog 1

> <UniProt (SwissProt) Entry Name of Target Chain>
RAD51_HUMAN

> <UniProt (SwissProt) Primary ID of Target Chain>
Q06609

> <UniProt (SwissProt) Secondary ID(s) of Target Chain>
B0FXP0 B2R8T6 Q6FHX9 Q6ZNA8 Q9BV60

> <UniProt (SwissProt) Alternative ID(s) of Target Chain>


> <UniProt (TrEMBL) Submitted Name of Target Chain>


> <UniProt (TrEMBL) Entry Name of Target Chain>


> <UniProt (TrEMBL) Primary ID of Target Chain>


> <UniProt (TrEMBL) Secondary ID(s) of Target Chain>


> <UniProt (TrEMBL) Alternative ID(s) of Target Chain>


$$$$
2490338
  Mrv0541 11251415482D          

 21 21  0  0  0  0            999 V2000
    3.7465   -0.3412    0.0000 O   0  0  0  0  0  0  0  0  0  0  0  0
    2.3175   -0.3412    0.0000 O   0  0  0  0  0  0  0  0  0  0  0  0
    5.8899    1.7213    0.0000 O   0  0  0  0  0  0  0  0  0  0  0  0
    5.1754    0.4838    0.0000 O   0  0  0  0  0  0  0  0  0  0  0  0
    5.1754    2.9588    0.0000 N   0  0  0  0  0  0  0  0  0  0  0  0
    4.4610    1.7213    0.0000 N   0  0  0  0  0  0  0  0  0  0  0  0
    2.3175   -2.8163    0.0000 C   0  0  0  0  0  0  0  0  0  0  0  0
    1.6500   -3.3012    0.0000 C   0  0  0  0  0  0  0  0  0  0  0  0
    2.9849   -3.3012    0.0000 C   0  0  0  0  0  0  0  0  0  0  0  0
    1.9050   -4.0858    0.0000 C   0  0  0  0  0  0  0  0  0  0  0  0
    2.7300   -4.0858    0.0000 C   0  0  0  0  0  0  0  0  0  0  0  0
    2.3175   -1.9913    0.0000 C   0  0  0  0  0  0  0  0  0  0  0  0
    3.0319   -1.5788    0.0000 C   0  0  0  0  0  0  0  0  0  0  0  0
    3.0319   -0.7537    0.0000 C   0  0  0  0  0  0  0  0  0  0  0  0
    5.8899    3.3714    0.0000 C   0  0  0  0  0  0  0  0  0  0  0  0
    6.6044    3.7839    0.0000 C   0  0  0  0  0  0  0  0  0  0  0  0
    5.4774    4.0858    0.0000 C   0  0  0  0  0  0  0  0  0  0  0  0
    6.3024    2.6569    0.0000 C   0  0  0  0  0  0  0  0  0  0  0  0
    3.7465    0.4838    0.0000 C   0  0  0  0  0  0  0  0  0  0  0  0
    5.1754    2.1338    0.0000 C   0  0  0  0  0  0  0  0  0  0  0  0
    4.4610    0.8963    0.0000 C   0  0  0  0  0  0  0  0  0  0  0  0
  1 14  1  0  0  0  0
  1 19  1  0  0  0  0
  2 14  2  0  0  0  0
  3 20  2  0  0  0  0
  4 21  2  0  0  0  0
  5 15  1  0  0  0  0
  5 20  1  0  0  0  0
  6 20  1  0  0  0  0
  6 21  1  0  0  0  0
  7  8  1  0  0  0  0
  7  9  1  0  0  0  0
  7 12  1  0  0  0  0
  8 10  1  0  0  0  0
  9 11  1  0  0  0  0
 10 11  1  0  0  0  0
 12 13  1  0  0  0  0
 13 14  1  0  0  0  0
 15 16  1  0  0  0  0
 15 17  1  0  0  0  0
 15 18  1  0  0  0  0
 19 21  1  0  0  0  0
M  END
> <From>
www.bindingDB.org

> <BindingDB Reactant_set_id>
95269

> <Ligand InChI>
InChI=1S/C15H26N2O4/c1-15(2,3)17-14(20)16-12(18)10-21-13(19)9-8-11-6-4-5-7-11/h11H,4-10H2,1-3H3,(H2,16,17,18,20)

> <Ligand InChI Key>
WPWCLBXYKATSMD-UHFFFAOYSA-N

> <BindingDB MonomerID>
43847

> <BindingDB Ligand Name>
3-cyclopentylpropanoic acid [2-[[(tert-butylamino)-oxomethyl]amino]-2-oxoethyl] ester::3-cyclopentylpropionic acid [2-(tert-butylcarbamoylamino)-2-keto-ethyl] ester::Acid, 55::MLS001033569::SMR000363963::[2-(tert-butylcarbamoylamino)-2-oxidanylidene-ethyl] 3-cyclopentylpropanoate::[2-(tert-butylcarbamoylamino)-2-oxoethyl] 3-cyclopentylpropanoate::cid_2490338

> <Target Name>
DNA repair protein RAD51 homolog 1

> <Target Source Organism According to Curator or DataSource>
Homo sapiens

> <Ki (nM)>


> <IC50 (nM)>
 53000

> <Kd (nM)>


> <EC50 (nM)>


> <kon (M-1-s-1)>


> <koff (s-1)>


> <pH>


> <Temp C>


> <Curation/DataSource>
PubChem

> <Article DOI>


> <BindingDB Entry DOI>
10.7270/Q2QN6558

> <PMID>


> <PubChem AID>
aid1437

> <Patent Number>


> <Authors>
PubChem, PC

> <Date of publication>
11/25/2008

> <Date in BindingDB>
5/31/2011

> <Institution>
PCMD

> <Link to Ligand in BindingDB>
http://www.bindingdb.org/bind/chemsearch/marvin/MolStructure.jsp?monomerid=43847

> <Link to Ligand-Target Pair in BindingDB>
http://www.bindingdb.org/jsp/dbsearch/PrimarySearch_ki.jsp?energyterm=kJ/mole&tag=pol&polymerid=4676&target=DNA+repair+protein+RAD51+homolog+1&column=ki&startPg=0&Increment=50&submit=Search

> <Link to Ligand-Target Pair in BindingDB>
http://www.bindingdb.org/jsp/dbsearch/PrimarySearch_ki.jsp?energyterm=kJ/mole&tag=r21&monomerid=43847&enzyme=DNA+repair+protein+RAD51+homolog+1&column=ki&startPg=0&Increment=50&submit=Search

> <Ligand HET ID in PDB>


> <PDB ID(s) for Ligand-Target Complex>


> <PubChem CID of Ligand>
2490338

> <PubChem SID of Ligand>
123080205

> <ChEBI ID of Ligand>


> <ChEMBL ID of Ligand>


> <DrugBank ID of Ligand>


> <IUPHAR_GRAC ID of Ligand>


> <KEGG ID of Ligand>


> <ZINC ID of Ligand>
ZINC03372568

> <Number of Protein Chains in Target (bigger than 1 implies a multichain complex)>
1

> <BindingDB Target Chain Sequence>
MAMQMQLEANADTSVEEESFGPQPISRLEQCGINANDVKKLEEAGFHTVEAVAYAPKKELINIKGISEAKADKILAEAAKLVPMGFTTATEFHQRRSEIIQITTGSKELDKLLQGGIETGSITEMFGEFRTGKTQICHTLAVTCQLPIDRGGGEGKAMYIDTEGTFRPERLLAVAERYGLSGSDVLDNVAYARAFNTDHQTQLLYQASAMMVESRYALLIVDSATALYRTDYSGRGELSARQMHLARFLRMLLRLADEFGVAVVITNQVVAQVDGAAMFAADPKKPIGGNIIAHASTTRLYLRKGRGETRICKIYDSPCLPEAEAMFAINADGVGDAKD

> <PDB ID(s) of Target Chain>
1N0W,5JZC,5NP7,5NWL,8BQ2,8BR2,8BSC

> <UniProt (SwissProt) Recommended Name of Target Chain>
DNA repair protein RAD51 homolog 1

> <UniProt (SwissProt) Entry Name of Target Chain>
RAD51_HUMAN

> <UniProt (SwissProt) Primary ID of Target Chain>
Q06609

> <UniProt (SwissProt) Secondary ID(s) of Target Chain>
B0FXP0 B2R8T6 Q6FHX9 Q6ZNA8 Q9BV60

> <UniProt (SwissProt) Alternative ID(s) of Target Chain>


> <UniProt (TrEMBL) Submitted Name of Target Chain>


> <UniProt (TrEMBL) Entry Name of Target Chain>


> <UniProt (TrEMBL) Primary ID of Target Chain>


> <UniProt (TrEMBL) Secondary ID(s) of Target Chain>


> <UniProt (TrEMBL) Alternative ID(s) of Target Chain>


$$$$
2120285
  Mrv0541 11251415482D          

 18 18  0  0  0  0            999 V2000
    3.0790    1.0808    0.0000 S   0  0  0  0  0  0  0  0  0  0  0  0
    3.9040    1.0808    0.0000 O   0  0  0  0  0  0  0  0  0  0  0  0
    2.2539    1.0808    0.0000 O   0  0  0  0  0  0  0  0  0  0  0  0
    3.0790    1.9058    0.0000 N   0  0  0  0  0  0  0  0  0  0  0  0
    2.3645   -0.9818    0.0000 N   0  0  0  0  0  0  0  0  0  0  0  0
    3.0790   -2.2193    0.0000 N   0  0  0  0  0  0  0  0  0  0  0  0
    2.3645   -2.6318    0.0000 N   0  0  0  0  0  0  0  0  0  0  0  0
    3.7935    2.3183    0.0000 C   0  0  0  0  0  0  0  0  0  0  0  0
    2.3645    2.3183    0.0000 C   0  0  0  0  0  0  0  0  0  0  0  0
    3.7935    3.1433    0.0000 C   0  0  0  0  0  0  0  0  0  0  0  0
    4.5080    1.9058    0.0000 C   0  0  0  0  0  0  0  0  0  0  0  0
    2.3645    3.1433    0.0000 C   0  0  0  0  0  0  0  0  0  0  0  0
    1.6500    1.9058    0.0000 C   0  0  0  0  0  0  0  0  0  0  0  0
    3.0790    0.2558    0.0000 C   0  0  0  0  0  0  0  0  0  0  0  0
    3.7935   -0.1568    0.0000 C   0  0  0  0  0  0  0  0  0  0  0  0
    2.3645   -0.1568    0.0000 C   0  0  0  0  0  0  0  0  0  0  0  0
    3.7935   -0.9818    0.0000 C   0  0  0  0  0  0  0  0  0  0  0  0
    3.0790   -1.3943    0.0000 C   0  0  0  0  0  0  0  0  0  0  0  0
  1  2  2  0  0  0  0
  1  3  2  0  0  0  0
  1  4  1  0  0  0  0
  1 14  1  0  0  0  0
  4  8  1  0  0  0  0
  4  9  1  0  0  0  0
  5 16  2  0  0  0  0
  5 18  1  0  0  0  0
  6  7  1  0  0  0  0
  6 18  1  0  0  0  0
  8 10  1  0  0  0  0
  8 11  1  0  0  0  0
  9 12  1  0  0  0  0
  9 13  1  0  0  0  0
 14 15  2  0  0  0  0
 14 16  1  0  0  0  0
 15 17  1  0  0  0  0
 17 18  2  0  0  0  0
M  END
> <From>
www.bindingDB.org

> <BindingDB Reactant_set_id>
95270

> <Ligand InChI>
InChI=1S/C11H20N4O2S/c1-8(2)15(9(3)4)18(16,17)10-5-6-11(14-12)13-7-10/h5-9H,12H2,1-4H3,(H,13,14)

> <Ligand InChI Key>
JMGXAWUTRFIGLY-UHFFFAOYSA-N

> <BindingDB MonomerID>
43848

> <BindingDB Ligand Name>
6-diazanyl-N,N-di(propan-2-yl)pyridine-3-sulfonamide::6-hydrazino-N,N-diisopropyl-pyridine-3-sulfonamide::6-hydrazinyl-N,N-di(propan-2-yl)-3-pyridinesulfonamide::6-hydrazinyl-N,N-di(propan-2-yl)pyridine-3-sulfonamide::Acid, 56::MLS000761312::SMR000369623::cid_2120285

> <Target Name>
DNA repair protein RAD51 homolog 1

> <Target Source Organism According to Curator or DataSource>
Homo sapiens

> <Ki (nM)>


> <IC50 (nM)>
 53000

> <Kd (nM)>


> <EC50 (nM)>


> <kon (M-1-s-1)>


> <koff (s-1)>


> <pH>


> <Temp C>


> <Curation/DataSource>
PubChem

> <Article DOI>


> <BindingDB Entry DOI>
10.7270/Q2QN6558

> <PMID>


> <PubChem AID>
aid1437

> <Patent Number>


> <Authors>
PubChem, PC

> <Date of publication>
11/25/2008

> <Date in BindingDB>
5/31/2011

> <Institution>
PCMD

> <Link to Ligand in BindingDB>
http://www.bindingdb.org/bind/chemsearch/marvin/MolStructure.jsp?monomerid=43848

> <Link to Ligand-Target Pair in BindingDB>
http://www.bindingdb.org/jsp/dbsearch/PrimarySearch_ki.jsp?energyterm=kJ/mole&tag=pol&polymerid=4676&target=DNA+repair+protein+RAD51+homolog+1&column=ki&startPg=0&Increment=50&submit=Search

> <Link to Ligand-Target Pair in BindingDB>
http://www.bindingdb.org/jsp/dbsearch/PrimarySearch_ki.jsp?energyterm=kJ/mole&tag=r21&monomerid=43848&enzyme=DNA+repair+protein+RAD51+homolog+1&column=ki&startPg=0&Increment=50&submit=Search

> <Ligand HET ID in PDB>


> <PDB ID(s) for Ligand-Target Complex>


> <PubChem CID of Ligand>
2120285

> <PubChem SID of Ligand>
123080206

> <ChEBI ID of Ligand>


> <ChEMBL ID of Ligand>


> <DrugBank ID of Ligand>


> <IUPHAR_GRAC ID of Ligand>


> <KEGG ID of Ligand>


> <ZINC ID of Ligand>
ZINC06122026

> <Number of Protein Chains in Target (bigger than 1 implies a multichain complex)>
1

> <BindingDB Target Chain Sequence>
MAMQMQLEANADTSVEEESFGPQPISRLEQCGINANDVKKLEEAGFHTVEAVAYAPKKELINIKGISEAKADKILAEAAKLVPMGFTTATEFHQRRSEIIQITTGSKELDKLLQGGIETGSITEMFGEFRTGKTQICHTLAVTCQLPIDRGGGEGKAMYIDTEGTFRPERLLAVAERYGLSGSDVLDNVAYARAFNTDHQTQLLYQASAMMVESRYALLIVDSATALYRTDYSGRGELSARQMHLARFLRMLLRLADEFGVAVVITNQVVAQVDGAAMFAADPKKPIGGNIIAHASTTRLYLRKGRGETRICKIYDSPCLPEAEAMFAINADGVGDAKD

> <PDB ID(s) of Target Chain>
1N0W,5JZC,5NP7,5NWL,8BQ2,8BR2,8BSC

> <UniProt (SwissProt) Recommended Name of Target Chain>
DNA repair protein RAD51 homolog 1

> <UniProt (SwissProt) Entry Name of Target Chain>
RAD51_HUMAN

> <UniProt (SwissProt) Primary ID of Target Chain>
Q06609

> <UniProt (SwissProt) Secondary ID(s) of Target Chain>
B0FXP0 B2R8T6 Q6FHX9 Q6ZNA8 Q9BV60

> <UniProt (SwissProt) Alternative ID(s) of Target Chain>


> <UniProt (TrEMBL) Submitted Name of Target Chain>


> <UniProt (TrEMBL) Entry Name of Target Chain>


> <UniProt (TrEMBL) Primary ID of Target Chain>


> <UniProt (TrEMBL) Secondary ID(s) of Target Chain>


> <UniProt (TrEMBL) Alternative ID(s) of Target Chain>


$$$$
4881247
  Mrv0541 11251415482D          

 25 28  0  0  0  0            999 V2000
    7.4149   -0.6449    0.0000 S   0  0  0  0  0  0  0  0  0  0  0  0
    4.4907   -1.6310    0.0000 S   0  0  0  0  0  0  0  0  0  0  0  0
    3.6901   -2.8640    0.0000 S   0  0  0  0  0  0  0  0  0  0  0  0
    5.9198    1.6691    0.0000 O   0  0  0  0  0  0  0  0  0  0  0  0
    5.2052    0.4316    0.0000 N   0  0  0  0  0  0  0  0  0  0  0  0
    5.9198   -0.8060    0.0000 N   0  0  0  0  0  0  0  0  0  0  0  0
    3.0225   -1.7080    0.0000 N   0  0  0  0  0  0  0  0  0  0  0  0
    6.6342    0.4316    0.0000 C   0  0  0  0  0  0  0  0  0  0  0  0
    4.4907   -0.8060    0.0000 C   0  0  0  0  0  0  0  0  0  0  0  0
    5.2052   -0.3935    0.0000 C   0  0  0  0  0  0  0  0  0  0  0  0
    7.4149    0.6830    0.0000 C   0  0  0  0  0  0  0  0  0  0  0  0
    6.6342   -0.3935    0.0000 C   0  0  0  0  0  0  0  0  0  0  0  0
    5.9198    0.8441    0.0000 C   0  0  0  0  0  0  0  0  0  0  0  0
    7.6712    1.4671    0.0000 C   0  0  0  0  0  0  0  0  0  0  0  0
    7.8963    0.0191    0.0000 C   0  0  0  0  0  0  0  0  0  0  0  0
    3.7763   -0.3935    0.0000 C   0  0  0  0  0  0  0  0  0  0  0  0
    7.1202    2.0812    0.0000 C   0  0  0  0  0  0  0  0  0  0  0  0
    8.4785    1.6372    0.0000 C   0  0  0  0  0  0  0  0  0  0  0  0
    3.7763   -2.0435    0.0000 C   0  0  0  0  0  0  0  0  0  0  0  0
    7.3765    2.8654    0.0000 C   0  0  0  0  0  0  0  0  0  0  0  0
    8.7347    2.4215    0.0000 C   0  0  0  0  0  0  0  0  0  0  0  0
    8.1838    3.0356    0.0000 C   0  0  0  0  0  0  0  0  0  0  0  0
    2.4705   -2.3210    0.0000 C   0  0  0  0  0  0  0  0  0  0  0  0
    2.8830   -3.0356    0.0000 C   0  0  0  0  0  0  0  0  0  0  0  0
    1.6500   -2.2348    0.0000 C   0  0  0  0  0  0  0  0  0  0  0  0
  1 12  1  0  0  0  0
  1 15  1  0  0  0  0
  2  9  1  0  0  0  0
  2 19  1  0  0  0  0
  3 19  1  0  0  0  0
  3 24  1  0  0  0  0
  4 13  2  0  0  0  0
  5 10  1  0  0  0  0
  5 13  1  0  0  0  0
  6 10  2  0  0  0  0
  6 12  1  0  0  0  0
  7 19  2  0  0  0  0
  7 23  1  0  0  0  0
  8 11  1  0  0  0  0
  8 12  2  0  0  0  0
  8 13  1  0  0  0  0
  9 10  1  0  0  0  0
  9 16  1  0  0  0  0
 11 14  1  0  0  0  0
 11 15  2  0  0  0  0
 14 17  2  0  0  0  0
 14 18  1  0  0  0  0
 17 20  1  0  0  0  0
 18 21  2  0  0  0  0
 20 22  2  0  0  0  0
 21 22  1  0  0  0  0
 23 24  2  0  0  0  0
 23 25  1  0  0  0  0
M  END
> <From>
www.bindingDB.org

> <BindingDB Reactant_set_id>
95271

> <Ligand InChI>
InChI=1S/C18H15N3OS3/c1-10-8-24-18(19-10)25-11(2)15-20-16(22)14-13(9-23-17(14)21-15)12-6-4-3-5-7-12/h3-9,11H,1-2H3,(H,20,21,22)

> <Ligand InChI Key>
XQAMSKBUGFVQFY-UHFFFAOYSA-N

> <BindingDB MonomerID>
43849

> <BindingDB Ligand Name>
2-[1-[(4-methyl-1,3-thiazol-2-yl)sulfanyl]ethyl]-5-phenyl-3H-thieno[2,3-d]pyrimidin-4-one::2-[1-[(4-methyl-2-thiazolyl)thio]ethyl]-5-phenyl-3H-thieno[2,3-d]pyrimidin-4-one::2-[1-[(4-methylthiazol-2-yl)thio]ethyl]-5-phenyl-3H-thieno[2,3-d]pyrimidin-4-one::Acid, 59::MLS000760573::SMR000369830::cid_4881247

> <Target Name>
DNA repair protein RAD51 homolog 1

> <Target Source Organism According to Curator or DataSource>
Homo sapiens

> <Ki (nM)>


> <IC50 (nM)>
 53000

> <Kd (nM)>


> <EC50 (nM)>


> <kon (M-1-s-1)>


> <koff (s-1)>


> <pH>


> <Temp C>


> <Curation/DataSource>
PubChem

> <Article DOI>


> <BindingDB Entry DOI>
10.7270/Q2QN6558

> <PMID>


> <PubChem AID>
aid1437

> <Patent Number>


> <Authors>
PubChem, PC

> <Date of publication>
11/25/2008

> <Date in BindingDB>
5/31/2011

> <Institution>
PCMD

> <Link to Ligand in BindingDB>
http://www.bindingdb.org/bind/chemsearch/marvin/MolStructure.jsp?monomerid=43849

> <Link to Ligand-Target Pair in BindingDB>
http://www.bindingdb.org/jsp/dbsearch/PrimarySearch_ki.jsp?energyterm=kJ/mole&tag=pol&polymerid=4676&target=DNA+repair+protein+RAD51+homolog+1&column=ki&startPg=0&Increment=50&submit=Search

> <Link to Ligand-Target Pair in BindingDB>
http://www.bindingdb.org/jsp/dbsearch/PrimarySearch_ki.jsp?energyterm=kJ/mole&tag=r21&monomerid=43849&enzyme=DNA+repair+protein+RAD51+homolog+1&column=ki&startPg=0&Increment=50&submit=Search

> <Ligand HET ID in PDB>


> <PDB ID(s) for Ligand-Target Complex>


> <PubChem CID of Ligand>
4881247

> <PubChem SID of Ligand>
123080207

> <ChEBI ID of Ligand>


> <ChEMBL ID of Ligand>


> <DrugBank ID of Ligand>


> <IUPHAR_GRAC ID of Ligand>


> <KEGG ID of Ligand>


> <ZINC ID of Ligand>
ZINC13598140

> <Number of Protein Chains in Target (bigger than 1 implies a multichain complex)>
1

> <BindingDB Target Chain Sequence>
MAMQMQLEANADTSVEEESFGPQPISRLEQCGINANDVKKLEEAGFHTVEAVAYAPKKELINIKGISEAKADKILAEAAKLVPMGFTTATEFHQRRSEIIQITTGSKELDKLLQGGIETGSITEMFGEFRTGKTQICHTLAVTCQLPIDRGGGEGKAMYIDTEGTFRPERLLAVAERYGLSGSDVLDNVAYARAFNTDHQTQLLYQASAMMVESRYALLIVDSATALYRTDYSGRGELSARQMHLARFLRMLLRLADEFGVAVVITNQVVAQVDGAAMFAADPKKPIGGNIIAHASTTRLYLRKGRGETRICKIYDSPCLPEAEAMFAINADGVGDAKD

> <PDB ID(s) of Target Chain>
1N0W,5JZC,5NP7,5NWL,8BQ2,8BR2,8BSC

> <UniProt (SwissProt) Recommended Name of Target Chain>
DNA repair protein RAD51 homolog 1

> <UniProt (SwissProt) Entry Name of Target Chain>
RAD51_HUMAN

> <UniProt (SwissProt) Primary ID of Target Chain>
Q06609

> <UniProt (SwissProt) Secondary ID(s) of Target Chain>
B0FXP0 B2R8T6 Q6FHX9 Q6ZNA8 Q9BV60

> <UniProt (SwissProt) Alternative ID(s) of Target Chain>


> <UniProt (TrEMBL) Submitted Name of Target Chain>


> <UniProt (TrEMBL) Entry Name of Target Chain>


> <UniProt (TrEMBL) Primary ID of Target Chain>


> <UniProt (TrEMBL) Secondary ID(s) of Target Chain>


> <UniProt (TrEMBL) Alternative ID(s) of Target Chain>


$$$$
2454926
  Mrv0541 11251415482D          

 22 24  0  0  0  0            999 V2000
    2.8695   -4.1648    0.0000 S   0  0  0  0  0  0  0  0  0  0  0  0
    5.0992   -2.1069    0.0000 O   0  0  0  0  0  0  0  0  0  0  0  0
    4.3846    4.0806    0.0000 O   0  0  0  0  0  0  0  0  0  0  0  0
    4.3846    0.7806    0.0000 N   0  0  0  0  0  0  0  0  0  0  0  0
    4.3846   -0.8694    0.0000 N   0  0  0  0  0  0  0  0  0  0  0  0
    3.6702    0.3681    0.0000 C   0  0  0  0  0  0  0  0  0  0  0  0
    5.0992    0.3681    0.0000 C   0  0  0  0  0  0  0  0  0  0  0  0
    3.6702   -0.4569    0.0000 C   0  0  0  0  0  0  0  0  0  0  0  0
    5.0992   -0.4569    0.0000 C   0  0  0  0  0  0  0  0  0  0  0  0
    4.3846    1.6056    0.0000 C   0  0  0  0  0  0  0  0  0  0  0  0
    4.3846   -1.6944    0.0000 C   0  0  0  0  0  0  0  0  0  0  0  0
    3.6702    2.0181    0.0000 C   0  0  0  0  0  0  0  0  0  0  0  0
    5.0992    2.0181    0.0000 C   0  0  0  0  0  0  0  0  0  0  0  0
    3.6702   -2.1069    0.0000 C   0  0  0  0  0  0  0  0  0  0  0  0
    3.6702    2.8431    0.0000 C   0  0  0  0  0  0  0  0  0  0  0  0
    5.0992    2.8431    0.0000 C   0  0  0  0  0  0  0  0  0  0  0  0
    4.3846    3.2556    0.0000 C   0  0  0  0  0  0  0  0  0  0  0  0
    3.6702   -2.9319    0.0000 C   0  0  0  0  0  0  0  0  0  0  0  0
    2.9557   -3.3444    0.0000 C   0  0  0  0  0  0  0  0  0  0  0  0
    2.2020   -3.0088    0.0000 C   0  0  0  0  0  0  0  0  0  0  0  0
    1.6500   -3.6219    0.0000 C   0  0  0  0  0  0  0  0  0  0  0  0
    2.0625   -4.3364    0.0000 C   0  0  0  0  0  0  0  0  0  0  0  0
  1 19  1  0  0  0  0
  1 22  1  0  0  0  0
  2 11  2  0  0  0  0
  3 17  1  0  0  0  0
  4  6  1  0  0  0  0
  4  7  1  0  0  0  0
  4 10  1  0  0  0  0
  5  8  1  0  0  0  0
  5  9  1  0  0  0  0
  5 11  1  0  0  0  0
  6  8  1  0  0  0  0
  7  9  1  0  0  0  0
 10 12  2  0  0  0  0
 10 13  1  0  0  0  0
 11 14  1  0  0  0  0
 12 15  1  0  0  0  0
 13 16  2  0  0  0  0
 14 18  2  0  0  0  0
 15 17  2  0  0  0  0
 16 17  1  0  0  0  0
 18 19  1  0  0  0  0
 19 20  2  0  0  0  0
 20 21  1  0  0  0  0
 21 22  2  0  0  0  0
M  END
> <From>
www.bindingDB.org

> <BindingDB Reactant_set_id>
95272

> <Ligand InChI>
InChI=1S/C17H18N2O2S/c20-15-5-3-14(4-6-15)18-9-11-19(12-10-18)17(21)8-7-16-2-1-13-22-16/h1-8,13,20H,9-12H2/b8-7+

> <Ligand InChI Key>
BFSPAPKTIGPYOV-BQYQJAHWSA-N

> <BindingDB MonomerID>
43850

> <BindingDB Ligand Name>
(E)-1-[4-(4-hydroxyphenyl)-1-piperazinyl]-3-thiophen-2-yl-2-propen-1-one::(E)-1-[4-(4-hydroxyphenyl)piperazin-1-yl]-3-thiophen-2-yl-prop-2-en-1-one::(E)-1-[4-(4-hydroxyphenyl)piperazin-1-yl]-3-thiophen-2-ylprop-2-en-1-one::(E)-1-[4-(4-hydroxyphenyl)piperazino]-3-(2-thienyl)prop-2-en-1-one::Acid, 60::MLS000775691::SMR000370577::cid_2454926

> <Target Name>
DNA repair protein RAD51 homolog 1

> <Target Source Organism According to Curator or DataSource>
Homo sapiens

> <Ki (nM)>


> <IC50 (nM)>
 53000

> <Kd (nM)>


> <EC50 (nM)>


> <kon (M-1-s-1)>


> <koff (s-1)>


> <pH>


> <Temp C>


> <Curation/DataSource>
PubChem

> <Article DOI>


> <BindingDB Entry DOI>
10.7270/Q2QN6558

> <PMID>


> <PubChem AID>
aid1437

> <Patent Number>


> <Authors>
PubChem, PC

> <Date of publication>
11/25/2008

> <Date in BindingDB>
5/31/2011

> <Institution>
PCMD

> <Link to Ligand in BindingDB>
http://www.bindingdb.org/bind/chemsearch/marvin/MolStructure.jsp?monomerid=43850

> <Link to Ligand-Target Pair in BindingDB>
http://www.bindingdb.org/jsp/dbsearch/PrimarySearch_ki.jsp?energyterm=kJ/mole&tag=pol&polymerid=4676&target=DNA+repair+protein+RAD51+homolog+1&column=ki&startPg=0&Increment=50&submit=Search

> <Link to Ligand-Target Pair in BindingDB>
http://www.bindingdb.org/jsp/dbsearch/PrimarySearch_ki.jsp?energyterm=kJ/mole&tag=r21&monomerid=43850&enzyme=DNA+repair+protein+RAD51+homolog+1&column=ki&startPg=0&Increment=50&submit=Search

> <Ligand HET ID in PDB>


> <PDB ID(s) for Ligand-Target Complex>


> <PubChem CID of Ligand>
2454926

> <PubChem SID of Ligand>
123080208

> <ChEBI ID of Ligand>


> <ChEMBL ID of Ligand>


> <DrugBank ID of Ligand>


> <IUPHAR_GRAC ID of Ligand>


> <KEGG ID of Ligand>


> <ZINC ID of Ligand>
ZINC03338655

> <Number of Protein Chains in Target (bigger than 1 implies a multichain complex)>
1

> <BindingDB Target Chain Sequence>
MAMQMQLEANADTSVEEESFGPQPISRLEQCGINANDVKKLEEAGFHTVEAVAYAPKKELINIKGISEAKADKILAEAAKLVPMGFTTATEFHQRRSEIIQITTGSKELDKLLQGGIETGSITEMFGEFRTGKTQICHTLAVTCQLPIDRGGGEGKAMYIDTEGTFRPERLLAVAERYGLSGSDVLDNVAYARAFNTDHQTQLLYQASAMMVESRYALLIVDSATALYRTDYSGRGELSARQMHLARFLRMLLRLADEFGVAVVITNQVVAQVDGAAMFAADPKKPIGGNIIAHASTTRLYLRKGRGETRICKIYDSPCLPEAEAMFAINADGVGDAKD

> <PDB ID(s) of Target Chain>
1N0W,5JZC,5NP7,5NWL,8BQ2,8BR2,8BSC

> <UniProt (SwissProt) Recommended Name of Target Chain>
DNA repair protein RAD51 homolog 1

> <UniProt (SwissProt) Entry Name of Target Chain>
RAD51_HUMAN

> <UniProt (SwissProt) Primary ID of Target Chain>
Q06609

> <UniProt (SwissProt) Secondary ID(s) of Target Chain>
B0FXP0 B2R8T6 Q6FHX9 Q6ZNA8 Q9BV60

> <UniProt (SwissProt) Alternative ID(s) of Target Chain>


> <UniProt (TrEMBL) Submitted Name of Target Chain>


> <UniProt (TrEMBL) Entry Name of Target Chain>


> <UniProt (TrEMBL) Primary ID of Target Chain>


> <UniProt (TrEMBL) Secondary ID(s) of Target Chain>


> <UniProt (TrEMBL) Alternative ID(s) of Target Chain>


$$$$
2507180
  Mrv0541 11251415482D          

 26 28  0  0  0  0            999 V2000
    4.3847    1.3050    0.0000 S   0  0  0  0  0  0  0  0  0  0  0  0
    2.2021   -3.3096    0.0000 S   0  0  0  0  0  0  0  0  0  0  0  0
    5.2097    1.3050    0.0000 O   0  0  0  0  0  0  0  0  0  0  0  0
    3.5597    1.3050    0.0000 O   0  0  0  0  0  0  0  0  0  0  0  0
    5.7667    3.8525    0.0000 O   0  0  0  0  0  0  0  0  0  0  0  0
    5.0993   -2.4076    0.0000 O   0  0  0  0  0  0  0  0  0  0  0  0
    3.6703   -2.4076    0.0000 N   0  0  0  0  0  0  0  0  0  0  0  0
    4.3847    2.1300    0.0000 N   0  0  0  0  0  0  0  0  0  0  0  0
    4.3847    0.4800    0.0000 C   0  0  0  0  0  0  0  0  0  0  0  0
    4.3847   -1.1700    0.0000 C   0  0  0  0  0  0  0  0  0  0  0  0
    3.6703   -3.2326    0.0000 C   0  0  0  0  0  0  0  0  0  0  0  0
    4.3847   -1.9951    0.0000 C   0  0  0  0  0  0  0  0  0  0  0  0
    5.0993    0.0675    0.0000 C   0  0  0  0  0  0  0  0  0  0  0  0
    3.6703    0.0675    0.0000 C   0  0  0  0  0  0  0  0  0  0  0  0
    5.0993    2.5425    0.0000 C   0  0  0  0  0  0  0  0  0  0  0  0
    5.0993   -0.7575    0.0000 C   0  0  0  0  0  0  0  0  0  0  0  0
    3.6703   -0.7575    0.0000 C   0  0  0  0  0  0  0  0  0  0  0  0
    2.9558   -3.6451    0.0000 C   0  0  0  0  0  0  0  0  0  0  0  0
    5.0993    3.3676    0.0000 C   0  0  0  0  0  0  0  0  0  0  0  0
    2.9558   -1.9951    0.0000 C   0  0  0  0  0  0  0  0  0  0  0  0
    2.8696   -4.4656    0.0000 C   0  0  0  0  0  0  0  0  0  0  0  0
    4.4317    3.8525    0.0000 C   0  0  0  0  0  0  0  0  0  0  0  0
    2.0625   -4.6371    0.0000 C   0  0  0  0  0  0  0  0  0  0  0  0
    4.6868    4.6371    0.0000 C   0  0  0  0  0  0  0  0  0  0  0  0
    1.6500   -3.9226    0.0000 C   0  0  0  0  0  0  0  0  0  0  0  0
    5.5118    4.6371    0.0000 C   0  0  0  0  0  0  0  0  0  0  0  0
  1  3  2  0  0  0  0
  1  4  2  0  0  0  0
  1  8  1  0  0  0  0
  1  9  1  0  0  0  0
  2 18  1  0  0  0  0
  2 25  1  0  0  0  0
  5 19  1  0  0  0  0
  5 26  1  0  0  0  0
  6 12  2  0  0  0  0
  7 11  1  0  0  0  0
  7 12  1  0  0  0  0
  7 20  1  0  0  0  0
  8 15  1  0  0  0  0
  9 13  2  0  0  0  0
  9 14  1  0  0  0  0
 10 12  1  0  0  0  0
 10 16  2  0  0  0  0
 10 17  1  0  0  0  0
 11 18  1  0  0  0  0
 13 16  1  0  0  0  0
 14 17  2  0  0  0  0
 15 19  1  0  0  0  0
 18 21  2  0  0  0  0
 19 22  2  0  0  0  0
 21 23  1  0  0  0  0
 22 24  1  0  0  0  0
 23 25  2  0  0  0  0
 24 26  2  0  0  0  0
M  END
> <From>
www.bindingDB.org

> <BindingDB Reactant_set_id>
95273

> <Ligand InChI>
InChI=1S/C18H18N2O4S2/c1-20(13-16-5-3-11-25-16)18(21)14-6-8-17(9-7-14)26(22,23)19-12-15-4-2-10-24-15/h2-11,19H,12-13H2,1H3

> <Ligand InChI Key>
FHWMUDLXQZJOSM-UHFFFAOYSA-N

> <BindingDB MonomerID>
43851

> <BindingDB Ligand Name>
4-(2-furanylmethylsulfamoyl)-N-methyl-N-(thiophen-2-ylmethyl)benzamide::4-(2-furfurylsulfamoyl)-N-methyl-N-(2-thenyl)benzamide::4-(furan-2-ylmethylsulfamoyl)-N-methyl-N-(thiophen-2-ylmethyl)benzamide::Acid, 61::MLS000760564::SMR000369823::cid_2507180

> <Target Name>
DNA repair protein RAD51 homolog 1

> <Target Source Organism According to Curator or DataSource>
Homo sapiens

> <Ki (nM)>


> <IC50 (nM)>
 53000

> <Kd (nM)>


> <EC50 (nM)>


> <kon (M-1-s-1)>


> <koff (s-1)>


> <pH>


> <Temp C>


> <Curation/DataSource>
PubChem

> <Article DOI>


> <BindingDB Entry DOI>
10.7270/Q2QN6558

> <PMID>


> <PubChem AID>
aid1437

> <Patent Number>


> <Authors>
PubChem, PC

> <Date of publication>
11/25/2008

> <Date in BindingDB>
5/31/2011

> <Institution>
PCMD

> <Link to Ligand in BindingDB>
http://www.bindingdb.org/bind/chemsearch/marvin/MolStructure.jsp?monomerid=43851

> <Link to Ligand-Target Pair in BindingDB>
http://www.bindingdb.org/jsp/dbsearch/PrimarySearch_ki.jsp?energyterm=kJ/mole&tag=pol&polymerid=4676&target=DNA+repair+protein+RAD51+homolog+1&column=ki&startPg=0&Increment=50&submit=Search

> <Link to Ligand-Target Pair in BindingDB>
http://www.bindingdb.org/jsp/dbsearch/PrimarySearch_ki.jsp?energyterm=kJ/mole&tag=r21&monomerid=43851&enzyme=DNA+repair+protein+RAD51+homolog+1&column=ki&startPg=0&Increment=50&submit=Search

> <Ligand HET ID in PDB>


> <PDB ID(s) for Ligand-Target Complex>


> <PubChem CID of Ligand>
2507180

> <PubChem SID of Ligand>
123080209

> <ChEBI ID of Ligand>


> <ChEMBL ID of Ligand>


> <DrugBank ID of Ligand>


> <IUPHAR_GRAC ID of Ligand>


> <KEGG ID of Ligand>


> <ZINC ID of Ligand>
ZINC03388985

> <Number of Protein Chains in Target (bigger than 1 implies a multichain complex)>
1

> <BindingDB Target Chain Sequence>
MAMQMQLEANADTSVEEESFGPQPISRLEQCGINANDVKKLEEAGFHTVEAVAYAPKKELINIKGISEAKADKILAEAAKLVPMGFTTATEFHQRRSEIIQITTGSKELDKLLQGGIETGSITEMFGEFRTGKTQICHTLAVTCQLPIDRGGGEGKAMYIDTEGTFRPERLLAVAERYGLSGSDVLDNVAYARAFNTDHQTQLLYQASAMMVESRYALLIVDSATALYRTDYSGRGELSARQMHLARFLRMLLRLADEFGVAVVITNQVVAQVDGAAMFAADPKKPIGGNIIAHASTTRLYLRKGRGETRICKIYDSPCLPEAEAMFAINADGVGDAKD

> <PDB ID(s) of Target Chain>
1N0W,5JZC,5NP7,5NWL,8BQ2,8BR2,8BSC

> <UniProt (SwissProt) Recommended Name of Target Chain>
DNA repair protein RAD51 homolog 1

> <UniProt (SwissProt) Entry Name of Target Chain>
RAD51_HUMAN

> <UniProt (SwissProt) Primary ID of Target Chain>
Q06609

> <UniProt (SwissProt) Secondary ID(s) of Target Chain>
B0FXP0 B2R8T6 Q6FHX9 Q6ZNA8 Q9BV60

> <UniProt (SwissProt) Alternative ID(s) of Target Chain>


> <UniProt (TrEMBL) Submitted Name of Target Chain>


> <UniProt (TrEMBL) Entry Name of Target Chain>


> <UniProt (TrEMBL) Primary ID of Target Chain>


> <UniProt (TrEMBL) Secondary ID(s) of Target Chain>


> <UniProt (TrEMBL) Alternative ID(s) of Target Chain>


$$$$
2118147
  Mrv0541 11251415482D          

 22 24  0  0  0  0            999 V2000
    4.2654    1.2405    0.0000 S   0  0  0  0  0  0  0  0  0  0  0  0
    6.7027    0.4981    0.0000 O   0  0  0  0  0  0  0  0  0  0  0  0
    5.7465    1.5599    0.0000 O   0  0  0  0  0  0  0  0  0  0  0  0
    3.1854    0.4559    0.0000 N   0  0  0  0  0  0  0  0  0  0  0  0
    2.1349    1.8217    0.0000 N   0  0  0  0  0  0  0  0  0  0  0  0
    3.8529   -0.0290    0.0000 C   0  0  0  0  0  0  0  0  0  0  0  0
    4.5203    0.4559    0.0000 C   0  0  0  0  0  0  0  0  0  0  0  0
    3.8529   -0.8540    0.0000 C   0  0  0  0  0  0  0  0  0  0  0  0
    5.3049    0.2010    0.0000 C   0  0  0  0  0  0  0  0  0  0  0  0
    3.4403    1.2405    0.0000 C   0  0  0  0  0  0  0  0  0  0  0  0
    4.5673   -1.2665    0.0000 C   0  0  0  0  0  0  0  0  0  0  0  0
    3.1384   -1.2665    0.0000 C   0  0  0  0  0  0  0  0  0  0  0  0
    3.8529   -2.5041    0.0000 C   0  0  0  0  0  0  0  0  0  0  0  0
    4.5673   -2.0916    0.0000 C   0  0  0  0  0  0  0  0  0  0  0  0
    3.1384   -2.0916    0.0000 C   0  0  0  0  0  0  0  0  0  0  0  0
    2.9554    1.9079    0.0000 C   0  0  0  0  0  0  0  0  0  0  0  0
    3.8529   -3.3291    0.0000 C   0  0  0  0  0  0  0  0  0  0  0  0
    5.9180    0.7530    0.0000 C   0  0  0  0  0  0  0  0  0  0  0  0
    3.2909    2.6616    0.0000 C   0  0  0  0  0  0  0  0  0  0  0  0
    2.8061    3.3291    0.0000 C   0  0  0  0  0  0  0  0  0  0  0  0
    1.6500    2.4891    0.0000 C   0  0  0  0  0  0  0  0  0  0  0  0
    1.9855    3.2428    0.0000 C   0  0  0  0  0  0  0  0  0  0  0  0
  1  7  1  0  0  0  0
  1 10  1  0  0  0  0
  2 18  1  0  0  0  0
  3 18  2  0  0  0  0
  4  6  1  0  0  0  0
  4 10  2  0  0  0  0
  5 16  2  0  0  0  0
  5 21  1  0  0  0  0
  6  7  2  0  0  0  0
  6  8  1  0  0  0  0
  7  9  1  0  0  0  0
  8 11  2  0  0  0  0
  8 12  1  0  0  0  0
  9 18  1  0  0  0  0
 10 16  1  0  0  0  0
 11 14  1  0  0  0  0
 12 15  2  0  0  0  0
 13 14  2  0  0  0  0
 13 15  1  0  0  0  0
 13 17  1  0  0  0  0
 16 19  1  0  0  0  0
 19 20  2  0  0  0  0
 20 22  1  0  0  0  0
 21 22  2  0  0  0  0
M  END
> <From>
www.bindingDB.org

> <BindingDB Reactant_set_id>
95274

> <Ligand InChI>
InChI=1S/C17H14N2O2S/c1-11-5-7-12(8-6-11)16-14(10-15(20)21)22-17(19-16)13-4-2-3-9-18-13/h2-9H,10H2,1H3,(H,20,21)

> <Ligand InChI Key>
WFBZZYNOMFNULR-UHFFFAOYSA-N

> <BindingDB MonomerID>
43852

> <BindingDB Ligand Name>
2-[4-(4-methylphenyl)-2-(2-pyridinyl)-5-thiazolyl]acetic acid::2-[4-(4-methylphenyl)-2-pyridin-2-yl-1,3-thiazol-5-yl]acetic acid::2-[4-(4-methylphenyl)-2-pyridin-2-yl-1,3-thiazol-5-yl]ethanoic acid::2-[4-(p-tolyl)-2-(2-pyridyl)thiazol-5-yl]acetic acid::AB-1::MLS000761246::SMR000369548::cid_2118147

> <Target Name>
DNA repair protein RAD51 homolog 1

> <Target Source Organism According to Curator or DataSource>
Homo sapiens

> <Ki (nM)>


> <IC50 (nM)>
 53000

> <Kd (nM)>


> <EC50 (nM)>


> <kon (M-1-s-1)>


> <koff (s-1)>


> <pH>


> <Temp C>


> <Curation/DataSource>
PubChem

> <Article DOI>


> <BindingDB Entry DOI>
10.7270/Q2QN6558

> <PMID>


> <PubChem AID>
aid1437

> <Patent Number>


> <Authors>
PubChem, PC

> <Date of publication>
11/25/2008

> <Date in BindingDB>
5/31/2011

> <Institution>
PCMD

> <Link to Ligand in BindingDB>
http://www.bindingdb.org/bind/chemsearch/marvin/MolStructure.jsp?monomerid=43852

> <Link to Ligand-Target Pair in BindingDB>
http://www.bindingdb.org/jsp/dbsearch/PrimarySearch_ki.jsp?energyterm=kJ/mole&tag=pol&polymerid=4676&target=DNA+repair+protein+RAD51+homolog+1&column=ki&startPg=0&Increment=50&submit=Search

> <Link to Ligand-Target Pair in BindingDB>
http://www.bindingdb.org/jsp/dbsearch/PrimarySearch_ki.jsp?energyterm=kJ/mole&tag=r21&monomerid=43852&enzyme=DNA+repair+protein+RAD51+homolog+1&column=ki&startPg=0&Increment=50&submit=Search

> <Ligand HET ID in PDB>


> <PDB ID(s) for Ligand-Target Complex>


> <PubChem CID of Ligand>
2118147

> <PubChem SID of Ligand>
123080210

> <ChEBI ID of Ligand>


> <ChEMBL ID of Ligand>


> <DrugBank ID of Ligand>


> <IUPHAR_GRAC ID of Ligand>


> <KEGG ID of Ligand>


> <ZINC ID of Ligand>
ZINC02654628

> <Number of Protein Chains in Target (bigger than 1 implies a multichain complex)>
1

> <BindingDB Target Chain Sequence>
MAMQMQLEANADTSVEEESFGPQPISRLEQCGINANDVKKLEEAGFHTVEAVAYAPKKELINIKGISEAKADKILAEAAKLVPMGFTTATEFHQRRSEIIQITTGSKELDKLLQGGIETGSITEMFGEFRTGKTQICHTLAVTCQLPIDRGGGEGKAMYIDTEGTFRPERLLAVAERYGLSGSDVLDNVAYARAFNTDHQTQLLYQASAMMVESRYALLIVDSATALYRTDYSGRGELSARQMHLARFLRMLLRLADEFGVAVVITNQVVAQVDGAAMFAADPKKPIGGNIIAHASTTRLYLRKGRGETRICKIYDSPCLPEAEAMFAINADGVGDAKD

> <PDB ID(s) of Target Chain>
1N0W,5JZC,5NP7,5NWL,8BQ2,8BR2,8BSC

> <UniProt (SwissProt) Recommended Name of Target Chain>
DNA repair protein RAD51 homolog 1

> <UniProt (SwissProt) Entry Name of Target Chain>
RAD51_HUMAN

> <UniProt (SwissProt) Primary ID of Target Chain>
Q06609

> <UniProt (SwissProt) Secondary ID(s) of Target Chain>
B0FXP0 B2R8T6 Q6FHX9 Q6ZNA8 Q9BV60

> <UniProt (SwissProt) Alternative ID(s) of Target Chain>


> <UniProt (TrEMBL) Submitted Name of Target Chain>


> <UniProt (TrEMBL) Entry Name of Target Chain>


> <UniProt (TrEMBL) Primary ID of Target Chain>


> <UniProt (TrEMBL) Secondary ID(s) of Target Chain>


> <UniProt (TrEMBL) Alternative ID(s) of Target Chain>


$$$$
2122335
  Mrv0541 11251415482D          

 28 29  0  0  0  0            999 V2000
    2.4751   -5.9814    0.0000 Cl  0  0  0  0  0  0  0  0  0  0  0  0
    2.4751   -2.6813    0.0000 S   0  0  0  0  0  0  0  0  0  0  0  0
    3.9040    0.6188    0.0000 O   0  0  0  0  0  0  0  0  0  0  0  0
    3.3001   -2.6813    0.0000 O   0  0  0  0  0  0  0  0  0  0  0  0
    1.6500   -2.6813    0.0000 O   0  0  0  0  0  0  0  0  0  0  0  0
    4.6185   -0.6188    0.0000 O   0  0  0  0  0  0  0  0  0  0  0  0
    5.3330    5.5689    0.0000 O   0  0  0  0  0  0  0  0  0  0  0  0
    3.9040    2.2688    0.0000 O   0  0  0  0  0  0  0  0  0  0  0  0
    2.4751   -1.8563    0.0000 N   0  0  0  0  0  0  0  0  0  0  0  0
    5.3330    2.2688    0.0000 N   0  0  0  0  0  0  0  0  0  0  0  0
    3.1895   -1.4438    0.0000 C   0  0  0  0  0  0  0  0  0  0  0  0
    3.1895   -0.6188    0.0000 C   0  0  0  0  0  0  0  0  0  0  0  0
    2.4751   -3.5063    0.0000 C   0  0  0  0  0  0  0  0  0  0  0  0
    3.1895   -3.9188    0.0000 C   0  0  0  0  0  0  0  0  0  0  0  0
    1.7606   -3.9188    0.0000 C   0  0  0  0  0  0  0  0  0  0  0  0
    3.9040   -0.2063    0.0000 C   0  0  0  0  0  0  0  0  0  0  0  0
    3.1895   -4.7439    0.0000 C   0  0  0  0  0  0  0  0  0  0  0  0
    1.7606   -4.7439    0.0000 C   0  0  0  0  0  0  0  0  0  0  0  0
    2.4751   -5.1564    0.0000 C   0  0  0  0  0  0  0  0  0  0  0  0
    4.6185    1.0313    0.0000 C   0  0  0  0  0  0  0  0  0  0  0  0
    5.3330    3.0938    0.0000 C   0  0  0  0  0  0  0  0  0  0  0  0
    4.6185    1.8563    0.0000 C   0  0  0  0  0  0  0  0  0  0  0  0
    4.6185    3.5063    0.0000 C   0  0  0  0  0  0  0  0  0  0  0  0
    6.0475    3.5063    0.0000 C   0  0  0  0  0  0  0  0  0  0  0  0
    5.3330    4.7439    0.0000 C   0  0  0  0  0  0  0  0  0  0  0  0
    4.6185    4.3313    0.0000 C   0  0  0  0  0  0  0  0  0  0  0  0
    6.0475    4.3313    0.0000 C   0  0  0  0  0  0  0  0  0  0  0  0
    6.0475    5.9814    0.0000 C   0  0  0  0  0  0  0  0  0  0  0  0
  1 19  1  0  0  0  0
  2  4  2  0  0  0  0
  2  5  2  0  0  0  0
  2  9  1  0  0  0  0
  2 13  1  0  0  0  0
  3 16  1  0  0  0  0
  3 20  1  0  0  0  0
  6 16  2  0  0  0  0
  7 25  1  0  0  0  0
  7 28  1  0  0  0  0
  8 22  2  0  0  0  0
  9 11  1  0  0  0  0
 10 21  1  0  0  0  0
 10 22  1  0  0  0  0
 11 12  1  0  0  0  0
 12 16  1  0  0  0  0
 13 14  2  0  0  0  0
 13 15  1  0  0  0  0
 14 17  1  0  0  0  0
 15 18  2  0  0  0  0
 17 19  2  0  0  0  0
 18 19  1  0  0  0  0
 20 22  1  0  0  0  0
 21 23  2  0  0  0  0
 21 24  1  0  0  0  0
 23 26  1  0  0  0  0
 24 27  2  0  0  0  0
 25 26  2  0  0  0  0
 25 27  1  0  0  0  0
M  END
> <From>
www.bindingDB.org

> <BindingDB Reactant_set_id>
95275

> <Ligand InChI>
InChI=1S/C18H19ClN2O6S/c1-26-15-6-4-14(5-7-15)21-17(22)12-27-18(23)10-11-20-28(24,25)16-8-2-13(19)3-9-16/h2-9,20H,10-12H2,1H3,(H,21,22)

> <Ligand InChI Key>
UPTBHMYAPKZWMG-UHFFFAOYSA-N

> <BindingDB MonomerID>
43853

> <BindingDB Ligand Name>
3-[(4-chlorophenyl)sulfonylamino]propanoic acid [2-(4-methoxyanilino)-2-oxoethyl] ester::3-[(4-chlorophenyl)sulfonylamino]propionic acid [2-keto-2-(p-anisidino)ethyl] ester::MLS000761252::SMR000369563::TL-3::[2-(4-methoxyanilino)-2-oxoethyl] 3-[(4-chlorophenyl)sulfonylamino]propanoate::[2-[(4-methoxyphenyl)amino]-2-oxidanylidene-ethyl] 3-[(4-chlorophenyl)sulfonylamino]propanoate::cid_2122335

> <Target Name>
DNA repair protein RAD51 homolog 1

> <Target Source Organism According to Curator or DataSource>
Homo sapiens

> <Ki (nM)>


> <IC50 (nM)>
 53000

> <Kd (nM)>


> <EC50 (nM)>


> <kon (M-1-s-1)>


> <koff (s-1)>


> <pH>


> <Temp C>


> <Curation/DataSource>
PubChem

> <Article DOI>


> <BindingDB Entry DOI>
10.7270/Q2QN6558

> <PMID>


> <PubChem AID>
aid1437

> <Patent Number>


> <Authors>
PubChem, PC

> <Date of publication>
11/25/2008

> <Date in BindingDB>
5/31/2011

> <Institution>
PCMD

> <Link to Ligand in BindingDB>
http://www.bindingdb.org/bind/chemsearch/marvin/MolStructure.jsp?monomerid=43853

> <Link to Ligand-Target Pair in BindingDB>
http://www.bindingdb.org/jsp/dbsearch/PrimarySearch_ki.jsp?energyterm=kJ/mole&tag=pol&polymerid=4676&target=DNA+repair+protein+RAD51+homolog+1&column=ki&startPg=0&Increment=50&submit=Search

> <Link to Ligand-Target Pair in BindingDB>
http://www.bindingdb.org/jsp/dbsearch/PrimarySearch_ki.jsp?energyterm=kJ/mole&tag=r21&monomerid=43853&enzyme=DNA+repair+protein+RAD51+homolog+1&column=ki&startPg=0&Increment=50&submit=Search

> <Ligand HET ID in PDB>


> <PDB ID(s) for Ligand-Target Complex>


> <PubChem CID of Ligand>
2122335

> <PubChem SID of Ligand>
123080211

> <ChEBI ID of Ligand>


> <ChEMBL ID of Ligand>


> <DrugBank ID of Ligand>


> <IUPHAR_GRAC ID of Ligand>


> <KEGG ID of Ligand>


> <ZINC ID of Ligand>
ZINC02658549

> <Number of Protein Chains in Target (bigger than 1 implies a multichain complex)>
1

> <BindingDB Target Chain Sequence>
MAMQMQLEANADTSVEEESFGPQPISRLEQCGINANDVKKLEEAGFHTVEAVAYAPKKELINIKGISEAKADKILAEAAKLVPMGFTTATEFHQRRSEIIQITTGSKELDKLLQGGIETGSITEMFGEFRTGKTQICHTLAVTCQLPIDRGGGEGKAMYIDTEGTFRPERLLAVAERYGLSGSDVLDNVAYARAFNTDHQTQLLYQASAMMVESRYALLIVDSATALYRTDYSGRGELSARQMHLARFLRMLLRLADEFGVAVVITNQVVAQVDGAAMFAADPKKPIGGNIIAHASTTRLYLRKGRGETRICKIYDSPCLPEAEAMFAINADGVGDAKD

> <PDB ID(s) of Target Chain>
1N0W,5JZC,5NP7,5NWL,8BQ2,8BR2,8BSC

> <UniProt (SwissProt) Recommended Name of Target Chain>
DNA repair protein RAD51 homolog 1

> <UniProt (SwissProt) Entry Name of Target Chain>
RAD51_HUMAN

> <UniProt (SwissProt) Primary ID of Target Chain>
Q06609

> <UniProt (SwissProt) Secondary ID(s) of Target Chain>
B0FXP0 B2R8T6 Q6FHX9 Q6ZNA8 Q9BV60

> <UniProt (SwissProt) Alternative ID(s) of Target Chain>


> <UniProt (TrEMBL) Submitted Name of Target Chain>


> <UniProt (TrEMBL) Entry Name of Target Chain>


> <UniProt (TrEMBL) Primary ID of Target Chain>


> <UniProt (TrEMBL) Secondary ID(s) of Target Chain>


> <UniProt (TrEMBL) Alternative ID(s) of Target Chain>


$$$$
958176
  Mrv0541 11251415482D          

 24 25  0  0  0  0            999 V2000
    2.3644   -2.6812    0.0000 O   0  0  0  0  0  0  0  0  0  0  0  0
    3.7934   -3.5062    0.0000 O   0  0  0  0  0  0  0  0  0  0  0  0
    3.0789    0.2063    0.0000 O   0  0  0  0  0  0  0  0  0  0  0  0
    7.3658    2.6812    0.0000 O   0  0  0  0  0  0  0  0  0  0  0  0
    6.6513    1.4438    0.0000 O   0  0  0  0  0  0  0  0  0  0  0  0
    4.5079    0.2063    0.0000 N   0  0  0  0  0  0  0  0  0  0  0  0
    4.5079    1.0313    0.0000 N   0  0  0  0  0  0  0  0  0  0  0  0
    3.7934   -1.0313    0.0000 C   0  0  0  0  0  0  0  0  0  0  0  0
    3.0789   -2.2688    0.0000 C   0  0  0  0  0  0  0  0  0  0  0  0
    3.0789   -1.4438    0.0000 C   0  0  0  0  0  0  0  0  0  0  0  0
    3.7934   -2.6812    0.0000 C   0  0  0  0  0  0  0  0  0  0  0  0
    4.5079   -1.4438    0.0000 C   0  0  0  0  0  0  0  0  0  0  0  0
    4.5079   -2.2688    0.0000 C   0  0  0  0  0  0  0  0  0  0  0  0
    5.2223    2.2688    0.0000 C   0  0  0  0  0  0  0  0  0  0  0  0
    5.9369    2.6812    0.0000 C   0  0  0  0  0  0  0  0  0  0  0  0
    3.7934   -0.2063    0.0000 C   0  0  0  0  0  0  0  0  0  0  0  0
    4.5079    2.6812    0.0000 C   0  0  0  0  0  0  0  0  0  0  0  0
    5.9369    3.5062    0.0000 C   0  0  0  0  0  0  0  0  0  0  0  0
    5.2223    1.4438    0.0000 C   0  0  0  0  0  0  0  0  0  0  0  0
    4.5079    3.5062    0.0000 C   0  0  0  0  0  0  0  0  0  0  0  0
    5.2223    3.9188    0.0000 C   0  0  0  0  0  0  0  0  0  0  0  0
    6.6513    2.2688    0.0000 C   0  0  0  0  0  0  0  0  0  0  0  0
    1.6500   -2.2688    0.0000 C   0  0  0  0  0  0  0  0  0  0  0  0
    4.5079   -3.9188    0.0000 C   0  0  0  0  0  0  0  0  0  0  0  0
  1  9  1  0  0  0  0
  1 23  1  0  0  0  0
  2 11  1  0  0  0  0
  2 24  1  0  0  0  0
  3 16  2  0  0  0  0
  4 22  1  0  0  0  0
  5 22  2  0  0  0  0
  7  6  1  4  0  0  0
  6 16  1  0  0  0  0
  7 19  2  0  0  0  0
  8 10  2  0  0  0  0
  8 12  1  0  0  0  0
  8 16  1  0  0  0  0
  9 10  1  0  0  0  0
  9 11  2  0  0  0  0
 11 13  1  0  0  0  0
 12 13  2  0  0  0  0
 14 15  2  0  0  0  0
 14 17  1  0  0  0  0
 14 19  1  0  0  0  0
 15 18  1  0  0  0  0
 15 22  1  0  0  0  0
 17 20  2  0  0  0  0
 18 21  2  0  0  0  0
 20 21  1  0  0  0  0
M  END
> <From>
www.bindingDB.org

> <BindingDB Reactant_set_id>
95276

> <Ligand InChI>
InChI=1S/C17H16N2O5/c1-23-14-8-7-11(9-15(14)24-2)16(20)19-18-10-12-5-3-4-6-13(12)17(21)22/h3-10H,1-2H3,(H,19,20)(H,21,22)

> <Ligand InChI Key>
FSQZSJGKLGBVFG-UHFFFAOYSA-N

> <BindingDB MonomerID>
43854

> <BindingDB Ligand Name>
2-[(veratroylhydrazono)methyl]benzoic acid::2-[[(3,4-dimethoxybenzoyl)hydrazinylidene]methyl]benzoic acid::2-[[(3,4-dimethoxyphenyl)carbonylhydrazinylidene]methyl]benzoic acid::2-[[[(3,4-dimethoxyphenyl)-oxomethyl]hydrazinylidene]methyl]benzoic acid::MLS000774113::SC-58272::SMR000365110::cid_958176

> <Target Name>
DNA repair protein RAD51 homolog 1

> <Target Source Organism According to Curator or DataSource>
Homo sapiens

> <Ki (nM)>


> <IC50 (nM)>
 53000

> <Kd (nM)>


> <EC50 (nM)>


> <kon (M-1-s-1)>


> <koff (s-1)>


> <pH>


> <Temp C>


> <Curation/DataSource>
PubChem

> <Article DOI>


> <BindingDB Entry DOI>
10.7270/Q2QN6558

> <PMID>


> <PubChem AID>
aid1437

> <Patent Number>


> <Authors>
PubChem, PC

> <Date of publication>
11/25/2008

> <Date in BindingDB>
5/31/2011

> <Institution>
PCMD

> <Link to Ligand in BindingDB>
http://www.bindingdb.org/bind/chemsearch/marvin/MolStructure.jsp?monomerid=43854

> <Link to Ligand-Target Pair in BindingDB>
http://www.bindingdb.org/jsp/dbsearch/PrimarySearch_ki.jsp?energyterm=kJ/mole&tag=pol&polymerid=4676&target=DNA+repair+protein+RAD51+homolog+1&column=ki&startPg=0&Increment=50&submit=Search

> <Link to Ligand-Target Pair in BindingDB>
http://www.bindingdb.org/jsp/dbsearch/PrimarySearch_ki.jsp?energyterm=kJ/mole&tag=r21&monomerid=43854&enzyme=DNA+repair+protein+RAD51+homolog+1&column=ki&startPg=0&Increment=50&submit=Search

> <Ligand HET ID in PDB>


> <PDB ID(s) for Ligand-Target Complex>


> <PubChem CID of Ligand>
6906996

> <PubChem SID of Ligand>
123080212

> <ChEBI ID of Ligand>


> <ChEMBL ID of Ligand>


> <DrugBank ID of Ligand>


> <IUPHAR_GRAC ID of Ligand>


> <KEGG ID of Ligand>


> <ZINC ID of Ligand>
ZINC13108969

> <Number of Protein Chains in Target (bigger than 1 implies a multichain complex)>
1

> <BindingDB Target Chain Sequence>
MAMQMQLEANADTSVEEESFGPQPISRLEQCGINANDVKKLEEAGFHTVEAVAYAPKKELINIKGISEAKADKILAEAAKLVPMGFTTATEFHQRRSEIIQITTGSKELDKLLQGGIETGSITEMFGEFRTGKTQICHTLAVTCQLPIDRGGGEGKAMYIDTEGTFRPERLLAVAERYGLSGSDVLDNVAYARAFNTDHQTQLLYQASAMMVESRYALLIVDSATALYRTDYSGRGELSARQMHLARFLRMLLRLADEFGVAVVITNQVVAQVDGAAMFAADPKKPIGGNIIAHASTTRLYLRKGRGETRICKIYDSPCLPEAEAMFAINADGVGDAKD

> <PDB ID(s) of Target Chain>
1N0W,5JZC,5NP7,5NWL,8BQ2,8BR2,8BSC

> <UniProt (SwissProt) Recommended Name of Target Chain>
DNA repair protein RAD51 homolog 1

> <UniProt (SwissProt) Entry Name of Target Chain>
RAD51_HUMAN

> <UniProt (SwissProt) Primary ID of Target Chain>
Q06609

> <UniProt (SwissProt) Secondary ID(s) of Target Chain>
B0FXP0 B2R8T6 Q6FHX9 Q6ZNA8 Q9BV60

> <UniProt (SwissProt) Alternative ID(s) of Target Chain>


> <UniProt (TrEMBL) Submitted Name of Target Chain>


> <UniProt (TrEMBL) Entry Name of Target Chain>


> <UniProt (TrEMBL) Primary ID of Target Chain>


> <UniProt (TrEMBL) Secondary ID(s) of Target Chain>


> <UniProt (TrEMBL) Alternative ID(s) of Target Chain>


$$$$
3282755
  Mrv0541 11251415482D          

 30 33  0  0  0  0            999 V2000
    4.8503   -0.9960    0.0000 S   0  0  0  0  0  0  0  0  0  0  0  0
    9.8517    0.2415    0.0000 O   0  0  0  0  0  0  0  0  0  0  0  0
    9.8517    1.8915    0.0000 O   0  0  0  0  0  0  0  0  0  0  0  0
    4.4378   -0.2816    0.0000 O   0  0  0  0  0  0  0  0  0  0  0  0
    5.2628   -1.7106    0.0000 O   0  0  0  0  0  0  0  0  0  0  0  0
    8.4227   -0.5835    0.0000 O   0  0  0  0  0  0  0  0  0  0  0  0
    3.4831   -0.1733    0.0000 N   0  0  0  0  0  0  0  0  0  0  0  0
    4.1359   -1.4085    0.0000 N   0  0  0  0  0  0  0  0  0  0  0  0
    7.7082    0.6540    0.0000 N   0  0  0  0  0  0  0  0  0  0  0  0
    1.9514   -1.2176    0.0000 C   0  0  0  0  0  0  0  0  0  0  0  0
    1.6500   -0.4496    0.0000 C   0  0  0  0  0  0  0  0  0  0  0  0
    2.7397   -1.4607    0.0000 C   0  0  0  0  0  0  0  0  0  0  0  0
    2.0625    0.2648    0.0000 C   0  0  0  0  0  0  0  0  0  0  0  0
    3.4214   -0.9960    0.0000 C   0  0  0  0  0  0  0  0  0  0  0  0
    2.8783    0.3878    0.0000 C   0  0  0  0  0  0  0  0  0  0  0  0
    9.1372    0.6540    0.0000 C   0  0  0  0  0  0  0  0  0  0  0  0
    5.5648   -0.5835    0.0000 C   0  0  0  0  0  0  0  0  0  0  0  0
    9.1372    1.4790    0.0000 C   0  0  0  0  0  0  0  0  0  0  0  0
    6.9938    0.2415    0.0000 C   0  0  0  0  0  0  0  0  0  0  0  0
    8.4227    0.2415    0.0000 C   0  0  0  0  0  0  0  0  0  0  0  0
    6.2792   -0.9960    0.0000 C   0  0  0  0  0  0  0  0  0  0  0  0
    5.5648    0.2415    0.0000 C   0  0  0  0  0  0  0  0  0  0  0  0
   10.5661    0.6540    0.0000 C   0  0  0  0  0  0  0  0  0  0  0  0
   10.5661    1.4790    0.0000 C   0  0  0  0  0  0  0  0  0  0  0  0
    6.9938   -0.5835    0.0000 C   0  0  0  0  0  0  0  0  0  0  0  0
    6.2792    0.6540    0.0000 C   0  0  0  0  0  0  0  0  0  0  0  0
   11.3036    0.2129    0.0000 C   0  0  0  0  0  0  0  0  0  0  0  0
   11.3036    1.9200    0.0000 C   0  0  0  0  0  0  0  0  0  0  0  0
   12.0511    0.6368    0.0000 C   0  0  0  0  0  0  0  0  0  0  0  0
   12.0511    1.4961    0.0000 C   0  0  0  0  0  0  0  0  0  0  0  0
  1  4  2  0  0  0  0
  1  5  2  0  0  0  0
  1  8  1  0  0  0  0
  1 17  1  0  0  0  0
  2 16  1  0  0  0  0
  2 23  1  0  0  0  0
  3 18  1  0  0  0  0
  3 24  1  0  0  0  0
  6 20  2  0  0  0  0
  7 14  2  0  0  0  0
  7 15  1  0  0  0  0
  8 14  1  0  0  0  0
  9 19  1  0  0  0  0
  9 20  1  0  0  0  0
 10 11  1  0  0  0  0
 10 12  1  0  0  0  0
 11 13  1  0  0  0  0
 12 14  1  0  0  0  0
 13 15  1  0  0  0  0
 16 18  1  0  0  0  0
 16 20  1  0  0  0  0
 17 21  2  0  0  0  0
 17 22  1  0  0  0  0
 19 25  2  0  0  0  0
 19 26  1  0  0  0  0
 21 25  1  0  0  0  0
 22 26  2  0  0  0  0
 23 24  2  0  0  0  0
 23 27  1  0  0  0  0
 24 28  1  0  0  0  0
 27 29  2  0  0  0  0
 28 30  2  0  0  0  0
 29 30  1  0  0  0  0
M  END
> <From>
www.bindingDB.org

> <BindingDB Reactant_set_id>
95277

> <Ligand InChI>
InChI=1S/C21H23N3O5S/c25-21(19-14-28-17-6-3-4-7-18(17)29-19)23-15-9-11-16(12-10-15)30(26,27)24-20-8-2-1-5-13-22-20/h3-4,6-7,9-12,19H,1-2,5,8,13-14H2,(H,22,24)(H,23,25)

> <Ligand InChI Key>
LGTMQXORORCNNT-UHFFFAOYSA-N

> <BindingDB MonomerID>
43855

> <BindingDB Ligand Name>
MLS000761278::N-[4-(3,4,5,6-tetrahydro-2H-azepin-7-ylsulfamoyl)phenyl]-2,3-dihydro-1,4-benzodioxin-3-carboxamide::N-[4-(3,4,5,6-tetrahydro-2H-azepin-7-ylsulfamoyl)phenyl]-2,3-dihydro-1,4-benzodioxine-3-carboxamide::Non peptidic, 2::SMR000369586::cid_3282755

> <Target Name>
DNA repair protein RAD51 homolog 1

> <Target Source Organism According to Curator or DataSource>
Homo sapiens

> <Ki (nM)>


> <IC50 (nM)>
 53000

> <Kd (nM)>


> <EC50 (nM)>


> <kon (M-1-s-1)>


> <koff (s-1)>


> <pH>


> <Temp C>


> <Curation/DataSource>
PubChem

> <Article DOI>


> <BindingDB Entry DOI>
10.7270/Q2QN6558

> <PMID>


> <PubChem AID>
aid1437

> <Patent Number>


> <Authors>
PubChem, PC

> <Date of publication>
11/25/2008

> <Date in BindingDB>
5/31/2011

> <Institution>
PCMD

> <Link to Ligand in BindingDB>
http://www.bindingdb.org/bind/chemsearch/marvin/MolStructure.jsp?monomerid=43855

> <Link to Ligand-Target Pair in BindingDB>
http://www.bindingdb.org/jsp/dbsearch/PrimarySearch_ki.jsp?energyterm=kJ/mole&tag=pol&polymerid=4676&target=DNA+repair+protein+RAD51+homolog+1&column=ki&startPg=0&Increment=50&submit=Search

> <Link to Ligand-Target Pair in BindingDB>
http://www.bindingdb.org/jsp/dbsearch/PrimarySearch_ki.jsp?energyterm=kJ/mole&tag=r21&monomerid=43855&enzyme=DNA+repair+protein+RAD51+homolog+1&column=ki&startPg=0&Increment=50&submit=Search

> <Ligand HET ID in PDB>


> <PDB ID(s) for Ligand-Target Complex>


> <PubChem CID of Ligand>
3282755

> <PubChem SID of Ligand>
123080213

> <ChEBI ID of Ligand>


> <ChEMBL ID of Ligand>


> <DrugBank ID of Ligand>


> <IUPHAR_GRAC ID of Ligand>


> <KEGG ID of Ligand>


> <ZINC ID of Ligand>
ZINC13147070

> <Number of Protein Chains in Target (bigger than 1 implies a multichain complex)>
1

> <BindingDB Target Chain Sequence>
MAMQMQLEANADTSVEEESFGPQPISRLEQCGINANDVKKLEEAGFHTVEAVAYAPKKELINIKGISEAKADKILAEAAKLVPMGFTTATEFHQRRSEIIQITTGSKELDKLLQGGIETGSITEMFGEFRTGKTQICHTLAVTCQLPIDRGGGEGKAMYIDTEGTFRPERLLAVAERYGLSGSDVLDNVAYARAFNTDHQTQLLYQASAMMVESRYALLIVDSATALYRTDYSGRGELSARQMHLARFLRMLLRLADEFGVAVVITNQVVAQVDGAAMFAADPKKPIGGNIIAHASTTRLYLRKGRGETRICKIYDSPCLPEAEAMFAINADGVGDAKD

> <PDB ID(s) of Target Chain>
1N0W,5JZC,5NP7,5NWL,8BQ2,8BR2,8BSC

> <UniProt (SwissProt) Recommended Name of Target Chain>
DNA repair protein RAD51 homolog 1

> <UniProt (SwissProt) Entry Name of Target Chain>
RAD51_HUMAN

> <UniProt (SwissProt) Primary ID of Target Chain>
Q06609

> <UniProt (SwissProt) Secondary ID(s) of Target Chain>
B0FXP0 B2R8T6 Q6FHX9 Q6ZNA8 Q9BV60

> <UniProt (SwissProt) Alternative ID(s) of Target Chain>


> <UniProt (TrEMBL) Submitted Name of Target Chain>


> <UniProt (TrEMBL) Entry Name of Target Chain>


> <UniProt (TrEMBL) Primary ID of Target Chain>


> <UniProt (TrEMBL) Secondary ID(s) of Target Chain>


> <UniProt (TrEMBL) Alternative ID(s) of Target Chain>


$$$$
3596078
  Mrv0541 11251415482D          

 27 29  0  0  0  0            999 V2000
    3.1895   -3.7678    0.0000 S   0  0  0  0  0  0  0  0  0  0  0  0
    2.4750   -0.0553    0.0000 S   0  0  0  0  0  0  0  0  0  0  0  0
    6.1019   -2.0978    0.0000 F   0  0  0  0  0  0  0  0  0  0  0  0
    2.7770   -4.4823    0.0000 O   0  0  0  0  0  0  0  0  0  0  0  0
    3.6020   -4.4823    0.0000 O   0  0  0  0  0  0  0  0  0  0  0  0
    1.6500   -0.0553    0.0000 O   0  0  0  0  0  0  0  0  0  0  0  0
    3.3000   -0.0553    0.0000 O   0  0  0  0  0  0  0  0  0  0  0  0
    2.4750    3.2448    0.0000 O   0  0  0  0  0  0  0  0  0  0  0  0
    3.1895   -1.2928    0.0000 N   0  0  0  0  0  0  0  0  0  0  0  0
    2.4750   -0.8803    0.0000 N   0  0  0  0  0  0  0  0  0  0  0  0
    2.4750   -3.3553    0.0000 C   0  0  0  0  0  0  0  0  0  0  0  0
    2.4750   -2.5303    0.0000 C   0  0  0  0  0  0  0  0  0  0  0  0
    3.9039   -3.3553    0.0000 C   0  0  0  0  0  0  0  0  0  0  0  0
    3.9039   -2.5303    0.0000 C   0  0  0  0  0  0  0  0  0  0  0  0
    3.1895   -2.1178    0.0000 C   0  0  0  0  0  0  0  0  0  0  0  0
    4.6415   -3.7964    0.0000 C   0  0  0  0  0  0  0  0  0  0  0  0
    4.6415   -2.0892    0.0000 C   0  0  0  0  0  0  0  0  0  0  0  0
    5.3890   -3.3725    0.0000 C   0  0  0  0  0  0  0  0  0  0  0  0
    5.3890   -2.5131    0.0000 C   0  0  0  0  0  0  0  0  0  0  0  0
    2.4750    0.7697    0.0000 C   0  0  0  0  0  0  0  0  0  0  0  0
    3.1895    1.1822    0.0000 C   0  0  0  0  0  0  0  0  0  0  0  0
    1.7606    1.1822    0.0000 C   0  0  0  0  0  0  0  0  0  0  0  0
    2.4750    2.4198    0.0000 C   0  0  0  0  0  0  0  0  0  0  0  0
    3.1895    2.0072    0.0000 C   0  0  0  0  0  0  0  0  0  0  0  0
    1.7606    2.0072    0.0000 C   0  0  0  0  0  0  0  0  0  0  0  0
    1.7606    3.6573    0.0000 C   0  0  0  0  0  0  0  0  0  0  0  0
    1.7606    4.4823    0.0000 C   0  0  0  0  0  0  0  0  0  0  0  0
  1  4  2  0  0  0  0
  1  5  2  0  0  0  0
  1 11  1  0  0  0  0
  1 13  1  0  0  0  0
  2  6  2  0  0  0  0
  2  7  2  0  0  0  0
  2 10  1  0  0  0  0
  2 20  1  0  0  0  0
  3 19  1  0  0  0  0
  8 23  1  0  0  0  0
  8 26  1  0  0  0  0
  9 10  1  4  0  0  0
  9 15  2  0  0  0  0
 11 12  1  0  0  0  0
 12 15  1  0  0  0  0
 13 14  2  0  0  0  0
 13 16  1  0  0  0  0
 14 15  1  0  0  0  0
 14 17  1  0  0  0  0
 16 18  2  0  0  0  0
 17 19  2  0  0  0  0
 18 19  1  0  0  0  0
 20 21  2  0  0  0  0
 20 22  1  0  0  0  0
 21 24  1  0  0  0  0
 22 25  2  0  0  0  0
 23 24  2  0  0  0  0
 23 25  1  0  0  0  0
 26 27  1  0  0  0  0
M  END
> <From>
www.bindingDB.org

> <BindingDB Reactant_set_id>
95278

> <Ligand InChI>
InChI=1S/C17H17FN2O5S2/c1-2-25-13-4-6-14(7-5-13)27(23,24)20-19-16-9-10-26(21,22)17-8-3-12(18)11-15(16)17/h3-8,11,20H,2,9-10H2,1H3

> <Ligand InChI Key>
AIOGLQGMWXKIAI-UHFFFAOYSA-N

> <BindingDB MonomerID>
43856

> <BindingDB Ligand Name>
4-ethoxy-N-[(6-fluoro-1,1-diketo-2,3-dihydrothiochromen-4-ylidene)amino]benzenesulfonamide::4-ethoxy-N-[(6-fluoro-1,1-dioxo-2,3-dihydro-1-benzothiopyran-4-ylidene)amino]benzenesulfonamide::4-ethoxy-N-[(6-fluoro-1,1-dioxo-2,3-dihydrothiochromen-4-ylidene)amino]benzenesulfonamide::4-ethoxy-N-[[6-fluoranyl-1,1-bis(oxidanylidene)-2,3-dihydrothiochromen-4-ylidene]amino]benzenesulfonamide::MLS000761277::Non peptidic, 3::SMR000369580::cid_3596078

> <Target Name>
DNA repair protein RAD51 homolog 1

> <Target Source Organism According to Curator or DataSource>
Homo sapiens

> <Ki (nM)>


> <IC50 (nM)>
 53000

> <Kd (nM)>


> <EC50 (nM)>


> <kon (M-1-s-1)>


> <koff (s-1)>


> <pH>


> <Temp C>


> <Curation/DataSource>
PubChem

> <Article DOI>


> <BindingDB Entry DOI>
10.7270/Q2QN6558

> <PMID>


> <PubChem AID>
aid1437

> <Patent Number>


> <Authors>
PubChem, PC

> <Date of publication>
11/25/2008

> <Date in BindingDB>
5/31/2011

> <Institution>
PCMD

> <Link to Ligand in BindingDB>
http://www.bindingdb.org/bind/chemsearch/marvin/MolStructure.jsp?monomerid=43856

> <Link to Ligand-Target Pair in BindingDB>
http://www.bindingdb.org/jsp/dbsearch/PrimarySearch_ki.jsp?energyterm=kJ/mole&tag=pol&polymerid=4676&target=DNA+repair+protein+RAD51+homolog+1&column=ki&startPg=0&Increment=50&submit=Search

> <Link to Ligand-Target Pair in BindingDB>
http://www.bindingdb.org/jsp/dbsearch/PrimarySearch_ki.jsp?energyterm=kJ/mole&tag=r21&monomerid=43856&enzyme=DNA+repair+protein+RAD51+homolog+1&column=ki&startPg=0&Increment=50&submit=Search

> <Ligand HET ID in PDB>


> <PDB ID(s) for Ligand-Target Complex>


> <PubChem CID of Ligand>
42912416

> <PubChem SID of Ligand>
123080214

> <ChEBI ID of Ligand>


> <ChEMBL ID of Ligand>


> <DrugBank ID of Ligand>


> <IUPHAR_GRAC ID of Ligand>


> <KEGG ID of Ligand>


> <ZINC ID of Ligand>
ZINC33707280

> <Number of Protein Chains in Target (bigger than 1 implies a multichain complex)>
1

> <BindingDB Target Chain Sequence>
MAMQMQLEANADTSVEEESFGPQPISRLEQCGINANDVKKLEEAGFHTVEAVAYAPKKELINIKGISEAKADKILAEAAKLVPMGFTTATEFHQRRSEIIQITTGSKELDKLLQGGIETGSITEMFGEFRTGKTQICHTLAVTCQLPIDRGGGEGKAMYIDTEGTFRPERLLAVAERYGLSGSDVLDNVAYARAFNTDHQTQLLYQASAMMVESRYALLIVDSATALYRTDYSGRGELSARQMHLARFLRMLLRLADEFGVAVVITNQVVAQVDGAAMFAADPKKPIGGNIIAHASTTRLYLRKGRGETRICKIYDSPCLPEAEAMFAINADGVGDAKD

> <PDB ID(s) of Target Chain>
1N0W,5JZC,5NP7,5NWL,8BQ2,8BR2,8BSC

> <UniProt (SwissProt) Recommended Name of Target Chain>
DNA repair protein RAD51 homolog 1

> <UniProt (SwissProt) Entry Name of Target Chain>
RAD51_HUMAN

> <UniProt (SwissProt) Primary ID of Target Chain>
Q06609

> <UniProt (SwissProt) Secondary ID(s) of Target Chain>
B0FXP0 B2R8T6 Q6FHX9 Q6ZNA8 Q9BV60

> <UniProt (SwissProt) Alternative ID(s) of Target Chain>


> <UniProt (TrEMBL) Submitted Name of Target Chain>


> <UniProt (TrEMBL) Entry Name of Target Chain>


> <UniProt (TrEMBL) Primary ID of Target Chain>


> <UniProt (TrEMBL) Secondary ID(s) of Target Chain>


> <UniProt (TrEMBL) Alternative ID(s) of Target Chain>


$$$$
16196545
  Mrv0541 11251415482D          

 28 30  0  0  0  0            999 V2000
    1.6500    0.6683    0.0000 F   0  0  0  0  0  0  0  0  0  0  0  0
    6.6515    0.2558    0.0000 O   0  0  0  0  0  0  0  0  0  0  0  0
   10.2239    1.4933    0.0000 O   0  0  0  0  0  0  0  0  0  0  0  0
    8.0804   -0.5693    0.0000 N   0  0  0  0  0  0  0  0  0  0  0  0
   10.2239   -0.9818    0.0000 N   0  0  0  0  0  0  0  0  0  0  0  0
    5.9370   -0.9818    0.0000 N   0  0  0  0  0  0  0  0  0  0  0  0
    9.5094    0.2558    0.0000 N   0  0  0  0  0  0  0  0  0  0  0  0
    8.7949   -0.9818    0.0000 C   0  0  0  0  0  0  0  0  0  0  0  0
    7.3659   -0.9818    0.0000 C   0  0  0  0  0  0  0  0  0  0  0  0
    8.0804    0.2558    0.0000 C   0  0  0  0  0  0  0  0  0  0  0  0
    9.5094   -0.5693    0.0000 C   0  0  0  0  0  0  0  0  0  0  0  0
    6.6515   -0.5693    0.0000 C   0  0  0  0  0  0  0  0  0  0  0  0
    5.2224   -0.5693    0.0000 C   0  0  0  0  0  0  0  0  0  0  0  0
    4.5080   -0.9818    0.0000 C   0  0  0  0  0  0  0  0  0  0  0  0
   10.9383   -0.5693    0.0000 C   0  0  0  0  0  0  0  0  0  0  0  0
    7.3659    0.6683    0.0000 C   0  0  0  0  0  0  0  0  0  0  0  0
   10.9383    0.2558    0.0000 C   0  0  0  0  0  0  0  0  0  0  0  0
    3.7935   -0.5693    0.0000 C   0  0  0  0  0  0  0  0  0  0  0  0
   10.2239    0.6683    0.0000 C   0  0  0  0  0  0  0  0  0  0  0  0
   11.6759   -1.0104    0.0000 C   0  0  0  0  0  0  0  0  0  0  0  0
   11.6759    0.6969    0.0000 C   0  0  0  0  0  0  0  0  0  0  0  0
    3.7935    0.2558    0.0000 C   0  0  0  0  0  0  0  0  0  0  0  0
    3.0790   -0.9818    0.0000 C   0  0  0  0  0  0  0  0  0  0  0  0
   12.4234   -0.5864    0.0000 C   0  0  0  0  0  0  0  0  0  0  0  0
   12.4234    0.2729    0.0000 C   0  0  0  0  0  0  0  0  0  0  0  0
    3.0790    0.6683    0.0000 C   0  0  0  0  0  0  0  0  0  0  0  0
    2.3645   -0.5693    0.0000 C   0  0  0  0  0  0  0  0  0  0  0  0
    2.3645    0.2558    0.0000 C   0  0  0  0  0  0  0  0  0  0  0  0
  1 28  1  0  0  0  0
  2 12  2  0  0  0  0
  3 19  2  0  0  0  0
  4  8  1  0  0  0  0
  4  9  1  0  0  0  0
  4 10  1  0  0  0  0
  5 11  2  0  0  0  0
  5 15  1  0  0  0  0
  6 12  1  0  0  0  0
  6 13  1  0  0  0  0
  7 11  1  0  0  0  0
  7 19  1  0  0  0  0
  8 11  1  0  0  0  0
  9 12  1  0  0  0  0
 10 16  1  0  0  0  0
 13 14  1  0  0  0  0
 14 18  1  0  0  0  0
 15 17  1  0  0  0  0
 15 20  2  0  0  0  0
 17 19  1  0  0  0  0
 17 21  2  0  0  0  0
 18 22  2  0  0  0  0
 18 23  1  0  0  0  0
 20 24  1  0  0  0  0
 21 25  1  0  0  0  0
 22 26  1  0  0  0  0
 23 27  2  0  0  0  0
 24 25  2  0  0  0  0
 26 28  2  0  0  0  0
 27 28  1  0  0  0  0
M  END
> <From>
www.bindingDB.org

> <BindingDB Reactant_set_id>
95279

> <Ligand InChI>
InChI=1S/C21H23FN4O2/c1-2-26(13-19-24-18-6-4-3-5-17(18)21(28)25-19)14-20(27)23-12-11-15-7-9-16(22)10-8-15/h3-10H,2,11-14H2,1H3,(H,23,27)(H,24,25,28)

> <Ligand InChI Key>
MDVDZSUEKDOMDI-UHFFFAOYSA-N

> <BindingDB MonomerID>
43857

> <BindingDB Ligand Name>
2-[ethyl-[(4-keto-1H-quinazolin-2-yl)methyl]amino]-N-[2-(4-fluorophenyl)ethyl]acetamide::2-[ethyl-[(4-oxidanylidene-1H-quinazolin-2-yl)methyl]amino]-N-[2-(4-fluorophenyl)ethyl]ethanamide::2-[ethyl-[(4-oxo-1H-quinazolin-2-yl)methyl]amino]-N-[2-(4-fluorophenyl)ethyl]acetamide::GLTISKLFRR-NH2::MLS000760541::SMR000369810::cid_16196545

> <Target Name>
DNA repair protein RAD51 homolog 1

> <Target Source Organism According to Curator or DataSource>
Homo sapiens

> <Ki (nM)>


> <IC50 (nM)>
 53000

> <Kd (nM)>


> <EC50 (nM)>


> <kon (M-1-s-1)>


> <koff (s-1)>


> <pH>


> <Temp C>


> <Curation/DataSource>
PubChem

> <Article DOI>


> <BindingDB Entry DOI>
10.7270/Q2QN6558

> <PMID>


> <PubChem AID>
aid1437

> <Patent Number>


> <Authors>
PubChem, PC

> <Date of publication>
11/25/2008

> <Date in BindingDB>
5/31/2011

> <Institution>
PCMD

> <Link to Ligand in BindingDB>
http://www.bindingdb.org/bind/chemsearch/marvin/MolStructure.jsp?monomerid=43857

> <Link to Ligand-Target Pair in BindingDB>
http://www.bindingdb.org/jsp/dbsearch/PrimarySearch_ki.jsp?energyterm=kJ/mole&tag=pol&polymerid=4676&target=DNA+repair+protein+RAD51+homolog+1&column=ki&startPg=0&Increment=50&submit=Search

> <Link to Ligand-Target Pair in BindingDB>
http://www.bindingdb.org/jsp/dbsearch/PrimarySearch_ki.jsp?energyterm=kJ/mole&tag=r21&monomerid=43857&enzyme=DNA+repair+protein+RAD51+homolog+1&column=ki&startPg=0&Increment=50&submit=Search

> <Ligand HET ID in PDB>


> <PDB ID(s) for Ligand-Target Complex>


> <PubChem CID of Ligand>
16196545

> <PubChem SID of Ligand>
123080215

> <ChEBI ID of Ligand>


> <ChEMBL ID of Ligand>


> <DrugBank ID of Ligand>


> <IUPHAR_GRAC ID of Ligand>


> <KEGG ID of Ligand>


> <ZINC ID of Ligand>
ZINC15953055

> <Number of Protein Chains in Target (bigger than 1 implies a multichain complex)>
1

> <BindingDB Target Chain Sequence>
MAMQMQLEANADTSVEEESFGPQPISRLEQCGINANDVKKLEEAGFHTVEAVAYAPKKELINIKGISEAKADKILAEAAKLVPMGFTTATEFHQRRSEIIQITTGSKELDKLLQGGIETGSITEMFGEFRTGKTQICHTLAVTCQLPIDRGGGEGKAMYIDTEGTFRPERLLAVAERYGLSGSDVLDNVAYARAFNTDHQTQLLYQASAMMVESRYALLIVDSATALYRTDYSGRGELSARQMHLARFLRMLLRLADEFGVAVVITNQVVAQVDGAAMFAADPKKPIGGNIIAHASTTRLYLRKGRGETRICKIYDSPCLPEAEAMFAINADGVGDAKD

> <PDB ID(s) of Target Chain>
1N0W,5JZC,5NP7,5NWL,8BQ2,8BR2,8BSC

> <UniProt (SwissProt) Recommended Name of Target Chain>
DNA repair protein RAD51 homolog 1

> <UniProt (SwissProt) Entry Name of Target Chain>
RAD51_HUMAN

> <UniProt (SwissProt) Primary ID of Target Chain>
Q06609

> <UniProt (SwissProt) Secondary ID(s) of Target Chain>
B0FXP0 B2R8T6 Q6FHX9 Q6ZNA8 Q9BV60

> <UniProt (SwissProt) Alternative ID(s) of Target Chain>


> <UniProt (TrEMBL) Submitted Name of Target Chain>


> <UniProt (TrEMBL) Entry Name of Target Chain>


> <UniProt (TrEMBL) Primary ID of Target Chain>


> <UniProt (TrEMBL) Secondary ID(s) of Target Chain>


> <UniProt (TrEMBL) Alternative ID(s) of Target Chain>


$$$$
2119586
  Mrv0541 11251416042D          

 26 27  0  0  0  0            999 V2000
    5.6655    2.0334    0.0000 S   0  0  0  0  0  0  0  0  0  0  0  0
    4.8404    2.0334    0.0000 O   0  0  0  0  0  0  0  0  0  0  0  0
    6.4905    2.0334    0.0000 O   0  0  0  0  0  0  0  0  0  0  0  0
    4.2365   -1.2666    0.0000 O   0  0  0  0  0  0  0  0  0  0  0  0
    3.5220   -0.0291    0.0000 O   0  0  0  0  0  0  0  0  0  0  0  0
    4.2365   -2.9167    0.0000 O   0  0  0  0  0  0  0  0  0  0  0  0
    3.5220   -4.1542    0.0000 O   0  0  0  0  0  0  0  0  0  0  0  0
    5.6655    2.8584    0.0000 N   0  0  0  0  0  0  0  0  0  0  0  0
    2.8075   -2.9167    0.0000 N   0  0  0  0  0  0  0  0  0  0  0  0
    2.0930   -4.1542    0.0000 N   0  0  0  0  0  0  0  0  0  0  0  0
    4.9221    3.2164    0.0000 C   0  0  0  0  0  0  0  0  0  0  0  0
    6.4087    3.2164    0.0000 C   0  0  0  0  0  0  0  0  0  0  0  0
    4.7386    4.0207    0.0000 C   0  0  0  0  0  0  0  0  0  0  0  0
    6.5924    4.0207    0.0000 C   0  0  0  0  0  0  0  0  0  0  0  0
    5.2530    4.6657    0.0000 C   0  0  0  0  0  0  0  0  0  0  0  0
    6.0780    4.6657    0.0000 C   0  0  0  0  0  0  0  0  0  0  0  0
    5.6655    1.2084    0.0000 C   0  0  0  0  0  0  0  0  0  0  0  0
    4.9509    0.7959    0.0000 C   0  0  0  0  0  0  0  0  0  0  0  0
    6.3799    0.7959    0.0000 C   0  0  0  0  0  0  0  0  0  0  0  0
    4.9509   -0.0291    0.0000 C   0  0  0  0  0  0  0  0  0  0  0  0
    6.3799   -0.0291    0.0000 C   0  0  0  0  0  0  0  0  0  0  0  0
    5.6655   -0.4416    0.0000 C   0  0  0  0  0  0  0  0  0  0  0  0
    4.2365   -0.4416    0.0000 C   0  0  0  0  0  0  0  0  0  0  0  0
    3.5220   -1.6792    0.0000 C   0  0  0  0  0  0  0  0  0  0  0  0
    3.5220   -2.5042    0.0000 C   0  0  0  0  0  0  0  0  0  0  0  0
    2.8075   -3.7417    0.0000 C   0  0  0  0  0  0  0  0  0  0  0  0
  1  2  2  0  0  0  0
  1  3  2  0  0  0  0
  1  8  1  0  0  0  0
  1 17  1  0  0  0  0
  4 23  1  0  0  0  0
  4 24  1  0  0  0  0
  5 23  2  0  0  0  0
  6 25  2  0  0  0  0
  7 26  2  0  0  0  0
  8 11  1  0  0  0  0
  8 12  1  0  0  0  0
  9 25  1  0  0  0  0
  9 26  1  0  0  0  0
 10 26  1  0  0  0  0
 11 13  1  0  0  0  0
 12 14  1  0  0  0  0
 13 15  1  0  0  0  0
 14 16  1  0  0  0  0
 15 16  1  0  0  0  0
 17 18  2  0  0  0  0
 17 19  1  0  0  0  0
 18 20  1  0  0  0  0
 19 21  2  0  0  0  0
 20 22  2  0  0  0  0
 20 23  1  0  0  0  0
 21 22  1  0  0  0  0
 24 25  1  0  0  0  0
M  END
> <From>
www.bindingDB.org

> <BindingDB Reactant_set_id>
95280

> <Ligand InChI>
InChI=1S/C16H21N3O6S/c17-16(22)18-14(20)11-25-15(21)12-6-5-7-13(10-12)26(23,24)19-8-3-1-2-4-9-19/h5-7,10H,1-4,8-9,11H2,(H3,17,18,20,22)

> <Ligand InChI Key>
HEBDUYJRJWBVLC-UHFFFAOYSA-N

> <BindingDB MonomerID>
51389

> <BindingDB Ligand Name>
3-(1-azepanylsulfonyl)benzoic acid [2-(carbamoylamino)-2-oxoethyl] ester::3-(azepan-1-ylsulfonyl)benzoic acid (2-keto-2-ureido-ethyl) ester::MLS000761232::SMR000369537::[2-(aminocarbonylamino)-2-oxidanylidene-ethyl] 3-(azepan-1-ylsulfonyl)benzoate::[2-(carbamoylamino)-2-oxoethyl] 3-(azepan-1-ylsulfonyl)benzoate::cid_2119586

> <Target Name>
DNA repair protein RAD51 homolog 1

> <Target Source Organism According to Curator or DataSource>
Homo sapiens

> <Ki (nM)>


> <IC50 (nM)>
 53000

> <Kd (nM)>


> <EC50 (nM)>


> <kon (M-1-s-1)>


> <koff (s-1)>


> <pH>


> <Temp C>


> <Curation/DataSource>
PubChem

> <Article DOI>


> <BindingDB Entry DOI>
10.7270/Q2QN6558

> <PMID>


> <PubChem AID>
aid1437

> <Patent Number>


> <Authors>
PubChem, PC

> <Date of publication>
11/25/2008

> <Date in BindingDB>
5/31/2011

> <Institution>
PCMD

> <Link to Ligand in BindingDB>
http://www.bindingdb.org/bind/chemsearch/marvin/MolStructure.jsp?monomerid=51389

> <Link to Ligand-Target Pair in BindingDB>
http://www.bindingdb.org/jsp/dbsearch/PrimarySearch_ki.jsp?energyterm=kJ/mole&tag=pol&polymerid=4676&target=DNA+repair+protein+RAD51+homolog+1&column=ki&startPg=0&Increment=50&submit=Search

> <Link to Ligand-Target Pair in BindingDB>
http://www.bindingdb.org/jsp/dbsearch/PrimarySearch_ki.jsp?energyterm=kJ/mole&tag=r21&monomerid=51389&enzyme=DNA+repair+protein+RAD51+homolog+1&column=ki&startPg=0&Increment=50&submit=Search

> <Ligand HET ID in PDB>


> <PDB ID(s) for Ligand-Target Complex>


> <PubChem CID of Ligand>
2119586

> <PubChem SID of Ligand>
252631595

> <ChEBI ID of Ligand>


> <ChEMBL ID of Ligand>


> <DrugBank ID of Ligand>


> <IUPHAR_GRAC ID of Ligand>


> <KEGG ID of Ligand>


> <ZINC ID of Ligand>
ZINC00520378

> <Number of Protein Chains in Target (bigger than 1 implies a multichain complex)>
1

> <BindingDB Target Chain Sequence>
MAMQMQLEANADTSVEEESFGPQPISRLEQCGINANDVKKLEEAGFHTVEAVAYAPKKELINIKGISEAKADKILAEAAKLVPMGFTTATEFHQRRSEIIQITTGSKELDKLLQGGIETGSITEMFGEFRTGKTQICHTLAVTCQLPIDRGGGEGKAMYIDTEGTFRPERLLAVAERYGLSGSDVLDNVAYARAFNTDHQTQLLYQASAMMVESRYALLIVDSATALYRTDYSGRGELSARQMHLARFLRMLLRLADEFGVAVVITNQVVAQVDGAAMFAADPKKPIGGNIIAHASTTRLYLRKGRGETRICKIYDSPCLPEAEAMFAINADGVGDAKD

> <PDB ID(s) of Target Chain>
1N0W,5JZC,5NP7,5NWL,8BQ2,8BR2,8BSC

> <UniProt (SwissProt) Recommended Name of Target Chain>
DNA repair protein RAD51 homolog 1

> <UniProt (SwissProt) Entry Name of Target Chain>
RAD51_HUMAN

> <UniProt (SwissProt) Primary ID of Target Chain>
Q06609

> <UniProt (SwissProt) Secondary ID(s) of Target Chain>
B0FXP0 B2R8T6 Q6FHX9 Q6ZNA8 Q9BV60

> <UniProt (SwissProt) Alternative ID(s) of Target Chain>


> <UniProt (TrEMBL) Submitted Name of Target Chain>


> <UniProt (TrEMBL) Entry Name of Target Chain>


> <UniProt (TrEMBL) Primary ID of Target Chain>


> <UniProt (TrEMBL) Secondary ID(s) of Target Chain>


> <UniProt (TrEMBL) Alternative ID(s) of Target Chain>


$$$$
2092108
  Mrv0541 11251415482D          

 24 26  0  0  0  0            999 V2000
    6.5650    1.2965    0.0000 S   0  0  0  0  0  0  0  0  0  0  0  0
    8.0171   -2.2335    0.0000 O   0  0  0  0  0  0  0  0  0  0  0  0
    2.6896    1.1061    0.0000 O   0  0  0  0  0  0  0  0  0  0  0  0
    4.9957    0.7866    0.0000 O   0  0  0  0  0  0  0  0  0  0  0  0
    8.0171    1.0666    0.0000 N   0  0  0  0  0  0  0  0  0  0  0  0
    4.5542    2.1457    0.0000 N   0  0  0  0  0  0  0  0  0  0  0  0
    7.6046    2.3361    0.0000 N   0  0  0  0  0  0  0  0  0  0  0  0
    8.4296    2.3361    0.0000 N   0  0  0  0  0  0  0  0  0  0  0  0
    3.5146    1.1061    0.0000 N   0  0  0  0  0  0  0  0  0  0  0  0
    8.0171    0.2416    0.0000 C   0  0  0  0  0  0  0  0  0  0  0  0
    7.3496    1.5515    0.0000 C   0  0  0  0  0  0  0  0  0  0  0  0
    8.7315   -0.1709    0.0000 C   0  0  0  0  0  0  0  0  0  0  0  0
    7.3025   -0.1709    0.0000 C   0  0  0  0  0  0  0  0  0  0  0  0
    8.0171   -1.4084    0.0000 C   0  0  0  0  0  0  0  0  0  0  0  0
    8.7315   -0.9959    0.0000 C   0  0  0  0  0  0  0  0  0  0  0  0
    7.3025   -0.9959    0.0000 C   0  0  0  0  0  0  0  0  0  0  0  0
    8.6845    1.5515    0.0000 C   0  0  0  0  0  0  0  0  0  0  0  0
    5.9519    1.8486    0.0000 C   0  0  0  0  0  0  0  0  0  0  0  0
    5.1672    1.5936    0.0000 C   0  0  0  0  0  0  0  0  0  0  0  0
    3.7695    1.8907    0.0000 C   0  0  0  0  0  0  0  0  0  0  0  0
    3.1021    2.3757    0.0000 C   0  0  0  0  0  0  0  0  0  0  0  0
    2.4347    1.8907    0.0000 C   0  0  0  0  0  0  0  0  0  0  0  0
    1.6500    2.1457    0.0000 C   0  0  0  0  0  0  0  0  0  0  0  0
    8.7315   -2.6460    0.0000 C   0  0  0  0  0  0  0  0  0  0  0  0
  1 11  1  0  0  0  0
  1 18  1  0  0  0  0
  2 14  1  0  0  0  0
  2 24  1  0  0  0  0
  3  9  1  0  0  0  0
  3 22  1  0  0  0  0
  4 19  2  0  0  0  0
  5 10  1  0  0  0  0
  5 11  1  0  0  0  0
  5 17  1  0  0  0  0
  6 19  1  0  0  0  0
  6 20  1  0  0  0  0
  7  8  1  0  0  0  0
  7 11  2  0  0  0  0
  8 17  2  0  0  0  0
  9 20  2  0  0  0  0
 10 12  2  0  0  0  0
 10 13  1  0  0  0  0
 12 15  1  0  0  0  0
 13 16  2  0  0  0  0
 14 15  2  0  0  0  0
 14 16  1  0  0  0  0
 18 19  1  0  0  0  0
 20 21  1  0  0  0  0
 21 22  2  0  0  0  0
 22 23  1  0  0  0  0
M  END
> <From>
www.bindingDB.org

> <BindingDB Reactant_set_id>
95281

> <Ligand InChI>
InChI=1S/C15H15N5O3S/c1-10-7-13(19-23-10)17-14(21)8-24-15-18-16-9-20(15)11-3-5-12(22-2)6-4-11/h3-7,9H,8H2,1-2H3,(H,17,19,21)

> <Ligand InChI Key>
MLOPTOSXXJYPKZ-UHFFFAOYSA-N

> <BindingDB MonomerID>
43859

> <BindingDB Ligand Name>
2-[[4-(4-methoxyphenyl)-1,2,4-triazol-3-yl]sulfanyl]-N-(5-methyl-1,2-oxazol-3-yl)acetamide::2-[[4-(4-methoxyphenyl)-1,2,4-triazol-3-yl]sulfanyl]-N-(5-methyl-1,2-oxazol-3-yl)ethanamide::2-[[4-(4-methoxyphenyl)-1,2,4-triazol-3-yl]thio]-N-(5-methyl-3-isoxazolyl)acetamide::2-[[4-(4-methoxyphenyl)-1,2,4-triazol-3-yl]thio]-N-(5-methylisoxazol-3-yl)acetamide::Glycopeptide, 1a::MLS000770537::SMR000375852::cid_2092108

> <Target Name>
DNA repair protein RAD51 homolog 1

> <Target Source Organism According to Curator or DataSource>
Homo sapiens

> <Ki (nM)>


> <IC50 (nM)>
 53000

> <Kd (nM)>


> <EC50 (nM)>


> <kon (M-1-s-1)>


> <koff (s-1)>


> <pH>


> <Temp C>


> <Curation/DataSource>
PubChem

> <Article DOI>


> <BindingDB Entry DOI>
10.7270/Q2QN6558

> <PMID>


> <PubChem AID>
aid1437

> <Patent Number>


> <Authors>
PubChem, PC

> <Date of publication>
11/25/2008

> <Date in BindingDB>
5/31/2011

> <Institution>
PCMD

> <Link to Ligand in BindingDB>
http://www.bindingdb.org/bind/chemsearch/marvin/MolStructure.jsp?monomerid=43859

> <Link to Ligand-Target Pair in BindingDB>
http://www.bindingdb.org/jsp/dbsearch/PrimarySearch_ki.jsp?energyterm=kJ/mole&tag=pol&polymerid=4676&target=DNA+repair+protein+RAD51+homolog+1&column=ki&startPg=0&Increment=50&submit=Search

> <Link to Ligand-Target Pair in BindingDB>
http://www.bindingdb.org/jsp/dbsearch/PrimarySearch_ki.jsp?energyterm=kJ/mole&tag=r21&monomerid=43859&enzyme=DNA+repair+protein+RAD51+homolog+1&column=ki&startPg=0&Increment=50&submit=Search

> <Ligand HET ID in PDB>


> <PDB ID(s) for Ligand-Target Complex>


> <PubChem CID of Ligand>
2092108

> <PubChem SID of Ligand>
123080217

> <ChEBI ID of Ligand>


> <ChEMBL ID of Ligand>


> <DrugBank ID of Ligand>


> <IUPHAR_GRAC ID of Ligand>


> <KEGG ID of Ligand>


> <ZINC ID of Ligand>
ZINC02629703

> <Number of Protein Chains in Target (bigger than 1 implies a multichain complex)>
1

> <BindingDB Target Chain Sequence>
MAMQMQLEANADTSVEEESFGPQPISRLEQCGINANDVKKLEEAGFHTVEAVAYAPKKELINIKGISEAKADKILAEAAKLVPMGFTTATEFHQRRSEIIQITTGSKELDKLLQGGIETGSITEMFGEFRTGKTQICHTLAVTCQLPIDRGGGEGKAMYIDTEGTFRPERLLAVAERYGLSGSDVLDNVAYARAFNTDHQTQLLYQASAMMVESRYALLIVDSATALYRTDYSGRGELSARQMHLARFLRMLLRLADEFGVAVVITNQVVAQVDGAAMFAADPKKPIGGNIIAHASTTRLYLRKGRGETRICKIYDSPCLPEAEAMFAINADGVGDAKD

> <PDB ID(s) of Target Chain>
1N0W,5JZC,5NP7,5NWL,8BQ2,8BR2,8BSC

> <UniProt (SwissProt) Recommended Name of Target Chain>
DNA repair protein RAD51 homolog 1

> <UniProt (SwissProt) Entry Name of Target Chain>
RAD51_HUMAN

> <UniProt (SwissProt) Primary ID of Target Chain>
Q06609

> <UniProt (SwissProt) Secondary ID(s) of Target Chain>
B0FXP0 B2R8T6 Q6FHX9 Q6ZNA8 Q9BV60

> <UniProt (SwissProt) Alternative ID(s) of Target Chain>


> <UniProt (TrEMBL) Submitted Name of Target Chain>


> <UniProt (TrEMBL) Entry Name of Target Chain>


> <UniProt (TrEMBL) Primary ID of Target Chain>


> <UniProt (TrEMBL) Secondary ID(s) of Target Chain>


> <UniProt (TrEMBL) Alternative ID(s) of Target Chain>


$$$$
2121893
  Mrv0541 11251415482D          

 20 21  0  0  0  0            999 V2000
    3.7934    4.1250    0.0000 Cl  0  0  0  0  0  0  0  0  0  0  0  0
    4.5079    0.4125    0.0000 O   0  0  0  0  0  0  0  0  0  0  0  0
    1.6500   -2.8875    0.0000 O   0  0  0  0  0  0  0  0  0  0  0  0
    3.0789    0.4125    0.0000 N   0  0  0  0  0  0  0  0  0  0  0  0
    3.0789   -2.8875    0.0000 N   0  0  0  0  0  0  0  0  0  0  0  0
    4.5079    2.8875    0.0000 N   0  0  0  0  0  0  0  0  0  0  0  0
    3.0789   -0.4125    0.0000 C   0  0  0  0  0  0  0  0  0  0  0  0
    3.0789   -2.0625    0.0000 C   0  0  0  0  0  0  0  0  0  0  0  0
    3.7934   -0.8250    0.0000 C   0  0  0  0  0  0  0  0  0  0  0  0
    2.3644   -0.8250    0.0000 C   0  0  0  0  0  0  0  0  0  0  0  0
    3.7934   -1.6500    0.0000 C   0  0  0  0  0  0  0  0  0  0  0  0
    2.3644   -1.6500    0.0000 C   0  0  0  0  0  0  0  0  0  0  0  0
    3.7934    0.8250    0.0000 C   0  0  0  0  0  0  0  0  0  0  0  0
    3.7934    1.6500    0.0000 C   0  0  0  0  0  0  0  0  0  0  0  0
    3.0789    2.0625    0.0000 C   0  0  0  0  0  0  0  0  0  0  0  0
    4.5079    2.0625    0.0000 C   0  0  0  0  0  0  0  0  0  0  0  0
    2.3644   -3.3000    0.0000 C   0  0  0  0  0  0  0  0  0  0  0  0
    3.0789    2.8875    0.0000 C   0  0  0  0  0  0  0  0  0  0  0  0
    3.7934    3.3000    0.0000 C   0  0  0  0  0  0  0  0  0  0  0  0
    2.3644   -4.1250    0.0000 C   0  0  0  0  0  0  0  0  0  0  0  0
  1 19  1  0  0  0  0
  2 13  2  0  0  0  0
  3 17  2  0  0  0  0
  4  7  1  0  0  0  0
  4 13  1  0  0  0  0
  5  8  1  0  0  0  0
  5 17  1  0  0  0  0
  6 16  2  0  0  0  0
  6 19  1  0  0  0  0
  7  9  2  0  0  0  0
  7 10  1  0  0  0  0
  8 11  2  0  0  0  0
  8 12  1  0  0  0  0
  9 11  1  0  0  0  0
 10 12  2  0  0  0  0
 13 14  1  0  0  0  0
 14 15  2  0  0  0  0
 14 16  1  0  0  0  0
 15 18  1  0  0  0  0
 17 20  1  0  0  0  0
 18 19  2  0  0  0  0
M  END
> <From>
www.bindingDB.org

> <BindingDB Reactant_set_id>
95282

> <Ligand InChI>
InChI=1S/C14H12ClN3O2/c1-9(19)17-11-3-5-12(6-4-11)18-14(20)10-2-7-13(15)16-8-10/h2-8H,1H3,(H,17,19)(H,18,20)

> <Ligand InChI Key>
ZEDHYTUJIWITOZ-UHFFFAOYSA-N

> <BindingDB MonomerID>
43860

> <BindingDB Ligand Name>
Glycopeptide, 2::MLS000517385::N-(4-acetamidophenyl)-6-chloranyl-pyridine-3-carboxamide::N-(4-acetamidophenyl)-6-chloro-3-pyridinecarboxamide::N-(4-acetamidophenyl)-6-chloro-nicotinamide::N-(4-acetamidophenyl)-6-chloropyridine-3-carboxamide::SMR000343444::cid_2121893

> <Target Name>
DNA repair protein RAD51 homolog 1

> <Target Source Organism According to Curator or DataSource>
Homo sapiens

> <Ki (nM)>


> <IC50 (nM)>
 53000

> <Kd (nM)>


> <EC50 (nM)>


> <kon (M-1-s-1)>


> <koff (s-1)>


> <pH>


> <Temp C>


> <Curation/DataSource>
PubChem

> <Article DOI>


> <BindingDB Entry DOI>
10.7270/Q2QN6558

> <PMID>


> <PubChem AID>
aid1437

> <Patent Number>


> <Authors>
PubChem, PC

> <Date of publication>
11/25/2008

> <Date in BindingDB>
5/31/2011

> <Institution>
PCMD

> <Link to Ligand in BindingDB>
http://www.bindingdb.org/bind/chemsearch/marvin/MolStructure.jsp?monomerid=43860

> <Link to Ligand-Target Pair in BindingDB>
http://www.bindingdb.org/jsp/dbsearch/PrimarySearch_ki.jsp?energyterm=kJ/mole&tag=pol&polymerid=4676&target=DNA+repair+protein+RAD51+homolog+1&column=ki&startPg=0&Increment=50&submit=Search

> <Link to Ligand-Target Pair in BindingDB>
http://www.bindingdb.org/jsp/dbsearch/PrimarySearch_ki.jsp?energyterm=kJ/mole&tag=r21&monomerid=43860&enzyme=DNA+repair+protein+RAD51+homolog+1&column=ki&startPg=0&Increment=50&submit=Search

> <Ligand HET ID in PDB>


> <PDB ID(s) for Ligand-Target Complex>


> <PubChem CID of Ligand>
2121893

> <PubChem SID of Ligand>
172097703

> <ChEBI ID of Ligand>


> <ChEMBL ID of Ligand>


> <DrugBank ID of Ligand>


> <IUPHAR_GRAC ID of Ligand>


> <KEGG ID of Ligand>


> <ZINC ID of Ligand>
ZINC02658112

> <Number of Protein Chains in Target (bigger than 1 implies a multichain complex)>
1

> <BindingDB Target Chain Sequence>
MAMQMQLEANADTSVEEESFGPQPISRLEQCGINANDVKKLEEAGFHTVEAVAYAPKKELINIKGISEAKADKILAEAAKLVPMGFTTATEFHQRRSEIIQITTGSKELDKLLQGGIETGSITEMFGEFRTGKTQICHTLAVTCQLPIDRGGGEGKAMYIDTEGTFRPERLLAVAERYGLSGSDVLDNVAYARAFNTDHQTQLLYQASAMMVESRYALLIVDSATALYRTDYSGRGELSARQMHLARFLRMLLRLADEFGVAVVITNQVVAQVDGAAMFAADPKKPIGGNIIAHASTTRLYLRKGRGETRICKIYDSPCLPEAEAMFAINADGVGDAKD

> <PDB ID(s) of Target Chain>
1N0W,5JZC,5NP7,5NWL,8BQ2,8BR2,8BSC

> <UniProt (SwissProt) Recommended Name of Target Chain>
DNA repair protein RAD51 homolog 1

> <UniProt (SwissProt) Entry Name of Target Chain>
RAD51_HUMAN

> <UniProt (SwissProt) Primary ID of Target Chain>
Q06609

> <UniProt (SwissProt) Secondary ID(s) of Target Chain>
B0FXP0 B2R8T6 Q6FHX9 Q6ZNA8 Q9BV60

> <UniProt (SwissProt) Alternative ID(s) of Target Chain>


> <UniProt (TrEMBL) Submitted Name of Target Chain>


> <UniProt (TrEMBL) Entry Name of Target Chain>


> <UniProt (TrEMBL) Primary ID of Target Chain>


> <UniProt (TrEMBL) Secondary ID(s) of Target Chain>


> <UniProt (TrEMBL) Alternative ID(s) of Target Chain>


$$$$
16681825
  Mrv0541 11251415482D          

 36 38  0  0  0  0            999 V2000
    5.1365    4.6533    0.0000 O   0  0  0  0  0  0  0  0  0  0  0  0
   10.9195    4.6533    0.0000 O   0  0  0  0  0  0  0  0  0  0  0  0
    8.0280    6.2313    0.0000 O   0  0  0  0  0  0  0  0  0  0  0  0
    1.8607    3.1697    0.0000 N   0  3  0  0  0  0  0  0  0  0  0  0
   14.1954    3.1697    0.0000 N   0  3  0  0  0  0  0  0  0  0  0  0
   13.6410    3.7807    0.0000 C   0  0  0  0  0  0  0  0  0  0  0  0
    2.4151    3.7807    0.0000 C   0  0  0  0  0  0  0  0  0  0  0  0
   14.7499    2.5587    0.0000 C   0  0  0  0  0  0  0  0  0  0  0  0
   14.8064    3.7241    0.0000 C   0  0  0  0  0  0  0  0  0  0  0  0
    1.3063    2.5587    0.0000 C   0  0  0  0  0  0  0  0  0  0  0  0
    1.2497    3.7241    0.0000 C   0  0  0  0  0  0  0  0  0  0  0  0
   12.8346    3.6060    0.0000 C   0  0  0  0  0  0  0  0  0  0  0  0
    3.2214    3.6060    0.0000 C   0  0  0  0  0  0  0  0  0  0  0  0
    2.4716    2.6153    0.0000 C   0  0  0  0  0  0  0  0  0  0  0  0
   13.5844    2.6153    0.0000 C   0  0  0  0  0  0  0  0  0  0  0  0
   12.2803    4.2170    0.0000 C   0  0  0  0  0  0  0  0  0  0  0  0
    3.7758    4.2170    0.0000 C   0  0  0  0  0  0  0  0  0  0  0  0
   15.5562    2.7333    0.0000 C   0  0  0  0  0  0  0  0  0  0  0  0
   14.6318    4.5304    0.0000 C   0  0  0  0  0  0  0  0  0  0  0  0
    0.5000    2.7333    0.0000 C   0  0  0  0  0  0  0  0  0  0  0  0
    1.4243    4.5304    0.0000 C   0  0  0  0  0  0  0  0  0  0  0  0
    4.5821    4.0424    0.0000 C   0  0  0  0  0  0  0  0  0  0  0  0
   11.4739    4.0424    0.0000 C   0  0  0  0  0  0  0  0  0  0  0  0
   10.1132    4.4787    0.0000 C   0  0  0  0  0  0  0  0  0  0  0  0
    5.9429    4.4787    0.0000 C   0  0  0  0  0  0  0  0  0  0  0  0
    8.4405    4.1366    0.0000 C   0  0  0  0  0  0  0  0  0  0  0  0
    7.6155    4.1366    0.0000 C   0  0  0  0  0  0  0  0  0  0  0  0
    8.6955    4.9213    0.0000 C   0  0  0  0  0  0  0  0  0  0  0  0
    7.3606    4.9213    0.0000 C   0  0  0  0  0  0  0  0  0  0  0  0
    9.5333    5.1129    0.0000 C   0  0  0  0  0  0  0  0  0  0  0  0
    6.5228    5.1129    0.0000 C   0  0  0  0  0  0  0  0  0  0  0  0
    8.0280    5.4062    0.0000 C   0  0  0  0  0  0  0  0  0  0  0  0
    6.2085    3.6614    0.0000 C   0  0  0  0  0  0  0  0  0  0  0  0
    9.8476    3.6614    0.0000 C   0  0  0  0  0  0  0  0  0  0  0  0
    9.0057    3.4892    0.0000 C   0  0  0  0  0  0  0  0  0  0  0  0
    7.0504    3.4892    0.0000 C   0  0  0  0  0  0  0  0  0  0  0  0
  1 22  1  0  0  0  0
  1 25  1  0  0  0  0
  2 23  1  0  0  0  0
  2 24  1  0  0  0  0
  3 32  2  0  0  0  0
  4  7  1  0  0  0  0
  4 10  1  0  0  0  0
  4 11  1  0  0  0  0
  4 14  1  0  0  0  0
  5  6  1  0  0  0  0
  5  8  1  0  0  0  0
  5  9  1  0  0  0  0
  5 15  1  0  0  0  0
  6 12  1  0  0  0  0
  7 13  1  0  0  0  0
  8 18  1  0  0  0  0
  9 19  1  0  0  0  0
 10 20  1  0  0  0  0
 11 21  1  0  0  0  0
 12 16  1  0  0  0  0
 13 17  1  0  0  0  0
 16 23  1  0  0  0  0
 17 22  1  0  0  0  0
 24 30  2  0  0  0  0
 24 34  1  0  0  0  0
 25 31  2  0  0  0  0
 25 33  1  0  0  0  0
 26 27  1  0  0  0  0
 26 28  2  0  0  0  0
 26 35  1  0  0  0  0
 27 29  2  0  0  0  0
 27 36  1  0  0  0  0
 28 30  1  0  0  0  0
 28 32  1  0  0  0  0
 29 31  1  0  0  0  0
 29 32  1  0  0  0  0
 33 36  2  0  0  0  0
 34 35  2  0  0  0  0
M  CHG  2   4   1   5   1
M  END
> <From>
www.bindingDB.org

> <BindingDB Reactant_set_id>
95283

> <Ligand InChI>
InChI=1S/C31H48N2O3/c1-7-32(5,8-2)19-11-13-21-35-25-15-17-27-28-18-16-26(24-30(28)31(34)29(27)23-25)36-22-14-12-20-33(6,9-3)10-4/h15-18,23-24H,7-14,19-22H2,1-6H3/q+2

> <Ligand InChI Key>
XXFYBCRYOMKRSF-UHFFFAOYSA-N

> <BindingDB MonomerID>
43861

> <BindingDB Ligand Name>
4-[7-[4-[diethyl(methyl)ammonio]butoxy]-9-keto-fluoren-2-yl]oxybutyl-diethyl-methyl-ammonium;iodide::4-[7-[4-[diethyl(methyl)azaniumyl]butoxy]-9-oxidanylidene-fluoren-2-yl]oxybutyl-diethyl-methyl-azanium;iodide::4-[7-[4-[diethyl(methyl)azaniumyl]butoxy]-9-oxofluoren-2-yl]oxybutyl-diethyl-methylazanium;iodide::4-[[7-[4-[diethyl(methyl)ammonio]butoxy]-9-oxo-2-fluorenyl]oxy]butyl-diethyl-methylammonium;iodide::Glycopeptide, 2a::MLS001047162::SMR000427492::cid_16681825

> <Target Name>
DNA repair protein RAD51 homolog 1

> <Target Source Organism According to Curator or DataSource>
Homo sapiens

> <Ki (nM)>


> <IC50 (nM)>
 53000

> <Kd (nM)>


> <EC50 (nM)>


> <kon (M-1-s-1)>


> <koff (s-1)>


> <pH>


> <Temp C>


> <Curation/DataSource>
PubChem

> <Article DOI>


> <BindingDB Entry DOI>
10.7270/Q2QN6558

> <PMID>


> <PubChem AID>
aid1437

> <Patent Number>


> <Authors>
PubChem, PC

> <Date of publication>
11/25/2008

> <Date in BindingDB>
5/31/2011

> <Institution>
PCMD

> <Link to Ligand in BindingDB>
http://www.bindingdb.org/bind/chemsearch/marvin/MolStructure.jsp?monomerid=43861

> <Link to Ligand-Target Pair in BindingDB>
http://www.bindingdb.org/jsp/dbsearch/PrimarySearch_ki.jsp?energyterm=kJ/mole&tag=pol&polymerid=4676&target=DNA+repair+protein+RAD51+homolog+1&column=ki&startPg=0&Increment=50&submit=Search

> <Link to Ligand-Target Pair in BindingDB>
http://www.bindingdb.org/jsp/dbsearch/PrimarySearch_ki.jsp?energyterm=kJ/mole&tag=r21&monomerid=43861&enzyme=DNA+repair+protein+RAD51+homolog+1&column=ki&startPg=0&Increment=50&submit=Search

> <Ligand HET ID in PDB>


> <PDB ID(s) for Ligand-Target Complex>


> <PubChem CID of Ligand>
3795476

> <PubChem SID of Ligand>
172097704

> <ChEBI ID of Ligand>


> <ChEMBL ID of Ligand>


> <DrugBank ID of Ligand>


> <IUPHAR_GRAC ID of Ligand>


> <KEGG ID of Ligand>


> <ZINC ID of Ligand>
ZINC09358260

> <Number of Protein Chains in Target (bigger than 1 implies a multichain complex)>
1

> <BindingDB Target Chain Sequence>
MAMQMQLEANADTSVEEESFGPQPISRLEQCGINANDVKKLEEAGFHTVEAVAYAPKKELINIKGISEAKADKILAEAAKLVPMGFTTATEFHQRRSEIIQITTGSKELDKLLQGGIETGSITEMFGEFRTGKTQICHTLAVTCQLPIDRGGGEGKAMYIDTEGTFRPERLLAVAERYGLSGSDVLDNVAYARAFNTDHQTQLLYQASAMMVESRYALLIVDSATALYRTDYSGRGELSARQMHLARFLRMLLRLADEFGVAVVITNQVVAQVDGAAMFAADPKKPIGGNIIAHASTTRLYLRKGRGETRICKIYDSPCLPEAEAMFAINADGVGDAKD

> <PDB ID(s) of Target Chain>
1N0W,5JZC,5NP7,5NWL,8BQ2,8BR2,8BSC

> <UniProt (SwissProt) Recommended Name of Target Chain>
DNA repair protein RAD51 homolog 1

> <UniProt (SwissProt) Entry Name of Target Chain>
RAD51_HUMAN

> <UniProt (SwissProt) Primary ID of Target Chain>
Q06609

> <UniProt (SwissProt) Secondary ID(s) of Target Chain>
B0FXP0 B2R8T6 Q6FHX9 Q6ZNA8 Q9BV60

> <UniProt (SwissProt) Alternative ID(s) of Target Chain>


> <UniProt (TrEMBL) Submitted Name of Target Chain>


> <UniProt (TrEMBL) Entry Name of Target Chain>


> <UniProt (TrEMBL) Primary ID of Target Chain>


> <UniProt (TrEMBL) Secondary ID(s) of Target Chain>


> <UniProt (TrEMBL) Alternative ID(s) of Target Chain>


$$$$
3930725
  Mrv0541 11251415482D          

 30 31  0  0  0  0            999 V2000
    4.2365    1.8563    0.0000 S   0  0  0  0  0  0  0  0  0  0  0  0
    4.9509   -4.3313    0.0000 S   0  0  0  0  0  0  0  0  0  0  0  0
    2.8075   -1.4438    0.0000 O   0  0  0  0  0  0  0  0  0  0  0  0
    5.0615    1.8563    0.0000 O   0  0  0  0  0  0  0  0  0  0  0  0
    3.4115    1.8563    0.0000 O   0  0  0  0  0  0  0  0  0  0  0  0
    3.5220   -4.3313    0.0000 O   0  0  0  0  0  0  0  0  0  0  0  0
    7.0944    4.3313    0.0000 O   0  0  0  0  0  0  0  0  0  0  0  0
    2.8075   -3.0938    0.0000 N   0  0  0  0  0  0  0  0  0  0  0  0
    4.2365   -1.4438    0.0000 N   0  0  0  0  0  0  0  0  0  0  0  0
    4.2365    2.6813    0.0000 N   0  0  0  0  0  0  0  0  0  0  0  0
    2.0930   -4.3313    0.0000 N   0  0  0  0  0  0  0  0  0  0  0  0
    3.5220   -2.6813    0.0000 C   0  0  0  0  0  0  0  0  0  0  0  0
    4.2365   -3.0938    0.0000 C   0  0  0  0  0  0  0  0  0  0  0  0
    3.5220   -1.8563    0.0000 C   0  0  0  0  0  0  0  0  0  0  0  0
    4.2365   -3.9188    0.0000 C   0  0  0  0  0  0  0  0  0  0  0  0
    4.2365   -0.6188    0.0000 C   0  0  0  0  0  0  0  0  0  0  0  0
    4.2365    1.0313    0.0000 C   0  0  0  0  0  0  0  0  0  0  0  0
    3.5220   -0.2063    0.0000 C   0  0  0  0  0  0  0  0  0  0  0  0
    4.9509   -0.2063    0.0000 C   0  0  0  0  0  0  0  0  0  0  0  0
    3.5220    0.6188    0.0000 C   0  0  0  0  0  0  0  0  0  0  0  0
    4.9509    0.6188    0.0000 C   0  0  0  0  0  0  0  0  0  0  0  0
    4.9509    3.0938    0.0000 C   0  0  0  0  0  0  0  0  0  0  0  0
    2.8075   -3.9188    0.0000 C   0  0  0  0  0  0  0  0  0  0  0  0
    4.9509    3.9188    0.0000 C   0  0  0  0  0  0  0  0  0  0  0  0
    5.6655    2.6813    0.0000 C   0  0  0  0  0  0  0  0  0  0  0  0
    4.9509   -5.1564    0.0000 C   0  0  0  0  0  0  0  0  0  0  0  0
    5.6655    4.3313    0.0000 C   0  0  0  0  0  0  0  0  0  0  0  0
    6.3799    3.0938    0.0000 C   0  0  0  0  0  0  0  0  0  0  0  0
    6.3799    3.9188    0.0000 C   0  0  0  0  0  0  0  0  0  0  0  0
    7.0944    5.1564    0.0000 C   0  0  0  0  0  0  0  0  0  0  0  0
  1  4  2  0  0  0  0
  1  5  2  0  0  0  0
  1 10  1  0  0  0  0
  1 17  1  0  0  0  0
  2 15  1  0  0  0  0
  2 26  1  0  0  0  0
  3 14  2  0  0  0  0
  6 23  2  0  0  0  0
  7 29  1  0  0  0  0
  7 30  1  0  0  0  0
  8 12  1  0  0  0  0
  8 23  1  0  0  0  0
  9 14  1  0  0  0  0
  9 16  1  0  0  0  0
 10 22  1  0  0  0  0
 11 23  1  0  0  0  0
 12 13  1  0  0  0  0
 12 14  1  0  0  0  0
 13 15  1  0  0  0  0
 16 18  2  0  0  0  0
 16 19  1  0  0  0  0
 17 20  2  0  0  0  0
 17 21  1  0  0  0  0
 18 20  1  0  0  0  0
 19 21  2  0  0  0  0
 22 24  2  0  0  0  0
 22 25  1  0  0  0  0
 24 27  1  0  0  0  0
 25 28  2  0  0  0  0
 27 29  2  0  0  0  0
 28 29  1  0  0  0  0
M  END
> <From>
www.bindingDB.org

> <BindingDB Reactant_set_id>
95284

> <Ligand InChI>
InChI=1S/C19H24N4O5S2/c1-28-15-7-3-14(4-8-15)23-30(26,27)16-9-5-13(6-10-16)21-18(24)17(11-12-29-2)22-19(20)25/h3-10,17,23H,11-12H2,1-2H3,(H,21,24)(H3,20,22,25)

> <Ligand InChI Key>
PJLDISUXKMEXEJ-UHFFFAOYSA-N

> <BindingDB MonomerID>
43862

> <BindingDB Ligand Name>
2-(aminocarbonylamino)-N-[4-[(4-methoxyphenyl)sulfamoyl]phenyl]-4-methylsulfanyl-butanamide::2-(carbamoylamino)-N-[4-[(4-methoxyphenyl)sulfamoyl]phenyl]-4-(methylthio)butanamide::2-(carbamoylamino)-N-[4-[(4-methoxyphenyl)sulfamoyl]phenyl]-4-methylsulfanylbutanamide::Glycopeptide, 3::MLS000774035::N-[4-[(4-methoxyphenyl)sulfamoyl]phenyl]-4-(methylthio)-2-ureido-butyramide::SMR000365182::cid_3930725

> <Target Name>
DNA repair protein RAD51 homolog 1

> <Target Source Organism According to Curator or DataSource>
Homo sapiens

> <Ki (nM)>


> <IC50 (nM)>
 53000

> <Kd (nM)>


> <EC50 (nM)>


> <kon (M-1-s-1)>


> <koff (s-1)>


> <pH>


> <Temp C>


> <Curation/DataSource>
PubChem

> <Article DOI>


> <BindingDB Entry DOI>
10.7270/Q2QN6558

> <PMID>


> <PubChem AID>
aid1437

> <Patent Number>


> <Authors>
PubChem, PC

> <Date of publication>
11/25/2008

> <Date in BindingDB>
5/31/2011

> <Institution>
PCMD

> <Link to Ligand in BindingDB>
http://www.bindingdb.org/bind/chemsearch/marvin/MolStructure.jsp?monomerid=43862

> <Link to Ligand-Target Pair in BindingDB>
http://www.bindingdb.org/jsp/dbsearch/PrimarySearch_ki.jsp?energyterm=kJ/mole&tag=pol&polymerid=4676&target=DNA+repair+protein+RAD51+homolog+1&column=ki&startPg=0&Increment=50&submit=Search

> <Link to Ligand-Target Pair in BindingDB>
http://www.bindingdb.org/jsp/dbsearch/PrimarySearch_ki.jsp?energyterm=kJ/mole&tag=r21&monomerid=43862&enzyme=DNA+repair+protein+RAD51+homolog+1&column=ki&startPg=0&Increment=50&submit=Search

> <Ligand HET ID in PDB>


> <PDB ID(s) for Ligand-Target Complex>


> <PubChem CID of Ligand>
3930725

> <PubChem SID of Ligand>
172097705

> <ChEBI ID of Ligand>


> <ChEMBL ID of Ligand>


> <DrugBank ID of Ligand>


> <IUPHAR_GRAC ID of Ligand>


> <KEGG ID of Ligand>


> <ZINC ID of Ligand>
ZINC04528714

> <Number of Protein Chains in Target (bigger than 1 implies a multichain complex)>
1

> <BindingDB Target Chain Sequence>
MAMQMQLEANADTSVEEESFGPQPISRLEQCGINANDVKKLEEAGFHTVEAVAYAPKKELINIKGISEAKADKILAEAAKLVPMGFTTATEFHQRRSEIIQITTGSKELDKLLQGGIETGSITEMFGEFRTGKTQICHTLAVTCQLPIDRGGGEGKAMYIDTEGTFRPERLLAVAERYGLSGSDVLDNVAYARAFNTDHQTQLLYQASAMMVESRYALLIVDSATALYRTDYSGRGELSARQMHLARFLRMLLRLADEFGVAVVITNQVVAQVDGAAMFAADPKKPIGGNIIAHASTTRLYLRKGRGETRICKIYDSPCLPEAEAMFAINADGVGDAKD

> <PDB ID(s) of Target Chain>
1N0W,5JZC,5NP7,5NWL,8BQ2,8BR2,8BSC

> <UniProt (SwissProt) Recommended Name of Target Chain>
DNA repair protein RAD51 homolog 1

> <UniProt (SwissProt) Entry Name of Target Chain>
RAD51_HUMAN

> <UniProt (SwissProt) Primary ID of Target Chain>
Q06609

> <UniProt (SwissProt) Secondary ID(s) of Target Chain>
B0FXP0 B2R8T6 Q6FHX9 Q6ZNA8 Q9BV60

> <UniProt (SwissProt) Alternative ID(s) of Target Chain>


> <UniProt (TrEMBL) Submitted Name of Target Chain>


> <UniProt (TrEMBL) Entry Name of Target Chain>


> <UniProt (TrEMBL) Primary ID of Target Chain>


> <UniProt (TrEMBL) Secondary ID(s) of Target Chain>


> <UniProt (TrEMBL) Alternative ID(s) of Target Chain>


$$$$
3642542
  Mrv0541 11251415482D          

 28 29  0  0  0  0            999 V2000
    5.2224    0.6188    0.0000 O   0  0  0  0  0  0  0  0  0  0  0  0
    5.2224    3.9188    0.0000 O   0  0  0  0  0  0  0  0  0  0  0  0
    1.6500    0.2063    0.0000 O   0  5  0  0  0  0  0  0  0  0  0  0
    2.3645    1.4438    0.0000 O   0  0  0  0  0  0  0  0  0  0  0  0
    6.6514   -3.5063    0.0000 N   0  0  0  0  0  0  0  0  0  0  0  0
    5.2224   -1.0313    0.0000 N   0  0  0  0  0  0  0  0  0  0  0  0
    3.7935    1.4438    0.0000 N   0  0  0  0  0  0  0  0  0  0  0  0
    4.5079    0.2063    0.0000 N   0  0  0  0  0  0  0  0  0  0  0  0
    3.7935   -1.0313    0.0000 N   0  0  0  0  0  0  0  0  0  0  0  0
    2.3645    0.6188    0.0000 N   0  3  0  0  0  0  0  0  0  0  0  0
    2.3645   -1.0313    0.0000 N   0  0  0  0  0  0  0  0  0  0  0  0
    5.9369   -2.2688    0.0000 C   0  0  0  0  0  0  0  0  0  0  0  0
    5.9369   -3.0938    0.0000 C   0  0  0  0  0  0  0  0  0  0  0  0
    5.2224   -1.8563    0.0000 C   0  0  0  0  0  0  0  0  0  0  0  0
    4.5079   -0.6188    0.0000 C   0  0  0  0  0  0  0  0  0  0  0  0
    6.6514   -4.3313    0.0000 C   0  0  0  0  0  0  0  0  0  0  0  0
    7.3658   -3.0938    0.0000 C   0  0  0  0  0  0  0  0  0  0  0  0
    3.7935    0.6188    0.0000 C   0  0  0  0  0  0  0  0  0  0  0  0
    4.5079    1.8563    0.0000 C   0  0  0  0  0  0  0  0  0  0  0  0
    3.0789    0.2063    0.0000 C   0  0  0  0  0  0  0  0  0  0  0  0
    3.0789   -0.6188    0.0000 C   0  0  0  0  0  0  0  0  0  0  0  0
    5.2224    1.4438    0.0000 C   0  0  0  0  0  0  0  0  0  0  0  0
    4.5079    2.6813    0.0000 C   0  0  0  0  0  0  0  0  0  0  0  0
    5.2224    3.0938    0.0000 C   0  0  0  0  0  0  0  0  0  0  0  0
    5.9369    1.8563    0.0000 C   0  0  0  0  0  0  0  0  0  0  0  0
    5.9369    2.6813    0.0000 C   0  0  0  0  0  0  0  0  0  0  0  0
    5.9369    0.2063    0.0000 C   0  0  0  0  0  0  0  0  0  0  0  0
    5.9369    4.3313    0.0000 C   0  0  0  0  0  0  0  0  0  0  0  0
  1 22  1  0  0  0  0
  1 27  1  0  0  0  0
  2 24  1  0  0  0  0
  2 28  1  0  0  0  0
  3 10  1  0  0  0  0
  4 10  2  0  0  0  0
  5 13  1  0  0  0  0
  5 16  1  0  0  0  0
  5 17  1  0  0  0  0
  6 14  1  0  0  0  0
  6 15  1  0  0  0  0
  7 18  1  0  0  0  0
  7 19  1  0  0  0  0
  8 15  2  0  0  0  0
  8 18  1  0  0  0  0
  9 15  1  0  0  0  0
  9 21  2  0  0  0  0
 10 20  1  0  0  0  0
 11 21  1  0  0  0  0
 12 13  1  0  0  0  0
 12 14  1  0  0  0  0
 18 20  2  0  0  0  0
 19 22  2  0  0  0  0
 19 23  1  0  0  0  0
 20 21  1  0  0  0  0
 22 25  1  0  0  0  0
 23 24  2  0  0  0  0
 24 26  1  0  0  0  0
 25 26  2  0  0  0  0
M  CHG  2   3  -1  10   1
M  END
> <From>
www.bindingDB.org

> <BindingDB Reactant_set_id>
95285

> <Ligand InChI>
InChI=1S/C17H25N7O4/c1-23(2)9-5-8-19-17-21-15(18)14(24(25)26)16(22-17)20-12-10-11(27-3)6-7-13(12)28-4/h6-7,10H,5,8-9H2,1-4H3,(H4,18,19,20,21,22)

> <Ligand InChI Key>
MKYRQCVELNFPRS-UHFFFAOYSA-N

> <BindingDB MonomerID>
43863

> <BindingDB Ligand Name>
3-[[4-amino-6-(2,5-dimethoxyanilino)-5-nitro-pyrimidin-2-yl]amino]propyl-dimethyl-amine::4-N-(2,5-dimethoxyphenyl)-2-N-[3-(dimethylamino)propyl]-5-nitropyrimidine-2,4,6-triamine::Glycopeptide, 3a::MLS000333423::N&#39;-(2,5-Dimethoxy-phenyl)-N-(3-dimethylamino-propyl)-5-nitro-pyrimidine-2,4,6-triamine::N4-(2,5-dimethoxyphenyl)-N2-[3-(dimethylamino)propyl]-5-nitro-pyrimidine-2,4,6-triamine::N4-(2,5-dimethoxyphenyl)-N2-[3-(dimethylamino)propyl]-5-nitropyrimidine-2,4,6-triamine::SMR000436735::cid_3642542

> <Target Name>
DNA repair protein RAD51 homolog 1

> <Target Source Organism According to Curator or DataSource>
Homo sapiens

> <Ki (nM)>


> <IC50 (nM)>
 53000

> <Kd (nM)>


> <EC50 (nM)>


> <kon (M-1-s-1)>


> <koff (s-1)>


> <pH>


> <Temp C>


> <Curation/DataSource>
PubChem

> <Article DOI>


> <BindingDB Entry DOI>
10.7270/Q2QN6558

> <PMID>


> <PubChem AID>
aid1437

> <Patent Number>


> <Authors>
PubChem, PC

> <Date of publication>
11/25/2008

> <Date in BindingDB>
5/31/2011

> <Institution>
PCMD

> <Link to Ligand in BindingDB>
http://www.bindingdb.org/bind/chemsearch/marvin/MolStructure.jsp?monomerid=43863

> <Link to Ligand-Target Pair in BindingDB>
http://www.bindingdb.org/jsp/dbsearch/PrimarySearch_ki.jsp?energyterm=kJ/mole&tag=pol&polymerid=4676&target=DNA+repair+protein+RAD51+homolog+1&column=ki&startPg=0&Increment=50&submit=Search

> <Link to Ligand-Target Pair in BindingDB>
http://www.bindingdb.org/jsp/dbsearch/PrimarySearch_ki.jsp?energyterm=kJ/mole&tag=r21&monomerid=43863&enzyme=DNA+repair+protein+RAD51+homolog+1&column=ki&startPg=0&Increment=50&submit=Search

> <Ligand HET ID in PDB>


> <PDB ID(s) for Ligand-Target Complex>


> <PubChem CID of Ligand>
3642542

> <PubChem SID of Ligand>
172097706

> <ChEBI ID of Ligand>


> <ChEMBL ID of Ligand>


> <DrugBank ID of Ligand>


> <IUPHAR_GRAC ID of Ligand>


> <KEGG ID of Ligand>


> <ZINC ID of Ligand>
ZINC09292371

> <Number of Protein Chains in Target (bigger than 1 implies a multichain complex)>
1

> <BindingDB Target Chain Sequence>
MAMQMQLEANADTSVEEESFGPQPISRLEQCGINANDVKKLEEAGFHTVEAVAYAPKKELINIKGISEAKADKILAEAAKLVPMGFTTATEFHQRRSEIIQITTGSKELDKLLQGGIETGSITEMFGEFRTGKTQICHTLAVTCQLPIDRGGGEGKAMYIDTEGTFRPERLLAVAERYGLSGSDVLDNVAYARAFNTDHQTQLLYQASAMMVESRYALLIVDSATALYRTDYSGRGELSARQMHLARFLRMLLRLADEFGVAVVITNQVVAQVDGAAMFAADPKKPIGGNIIAHASTTRLYLRKGRGETRICKIYDSPCLPEAEAMFAINADGVGDAKD

> <PDB ID(s) of Target Chain>
1N0W,5JZC,5NP7,5NWL,8BQ2,8BR2,8BSC

> <UniProt (SwissProt) Recommended Name of Target Chain>
DNA repair protein RAD51 homolog 1

> <UniProt (SwissProt) Entry Name of Target Chain>
RAD51_HUMAN

> <UniProt (SwissProt) Primary ID of Target Chain>
Q06609

> <UniProt (SwissProt) Secondary ID(s) of Target Chain>
B0FXP0 B2R8T6 Q6FHX9 Q6ZNA8 Q9BV60

> <UniProt (SwissProt) Alternative ID(s) of Target Chain>


> <UniProt (TrEMBL) Submitted Name of Target Chain>


> <UniProt (TrEMBL) Entry Name of Target Chain>


> <UniProt (TrEMBL) Primary ID of Target Chain>


> <UniProt (TrEMBL) Secondary ID(s) of Target Chain>


> <UniProt (TrEMBL) Alternative ID(s) of Target Chain>


$$$$
 
  Mrv0541 11221400272D          

 21 24  0  0  0  0            999 V2000
   14.5204  -25.1958    0.0000 N   0  0  0  0  0  0  0  0  0  0  0  0
   13.8496  -24.7114    0.0000 C   0  0  0  0  0  0  0  0  0  0  0  0
   14.1099  -23.9262    0.0000 C   0  0  0  0  0  0  0  0  0  0  0  0
   13.5579  -23.3117    0.0000 C   0  0  0  0  0  0  0  0  0  0  0  0
   12.7496  -23.4812    0.0000 C   0  0  0  0  0  0  0  0  0  0  0  0
   12.4963  -24.2708    0.0000 C   0  0  0  0  0  0  0  0  0  0  0  0
   13.0459  -24.8819    0.0000 C   0  0  0  0  0  0  0  0  0  0  0  0
   14.9365  -23.9238    0.0000 C   0  0  0  0  0  0  0  0  0  0  0  0
   15.1872  -24.7095    0.0000 C   0  0  0  0  0  0  0  0  0  0  0  0
   15.9919  -24.8816    0.0000 C   0  0  0  0  0  0  0  0  0  0  0  0
   15.4828  -23.3132    0.0000 C   0  0  0  0  0  0  0  0  0  0  0  0
   16.2869  -23.4816    0.0000 C   0  0  0  0  0  0  0  0  0  0  0  0
   16.5439  -24.2681    0.0000 C   0  0  0  0  0  0  0  0  0  0  0  0
   17.3505  -24.4388    0.0000 C   0  0  0  0  0  0  0  0  0  0  0  0
   17.9007  -23.8282    0.0000 C   0  0  0  0  0  0  0  0  0  0  0  0
   17.6429  -23.0401    0.0000 N   0  0  0  0  0  0  0  0  0  0  0  0
   16.8371  -22.8688    0.0000 C   0  0  0  0  0  0  0  0  0  0  0  0
   15.2276  -22.5257    0.0000 C   0  0  0  0  0  0  0  0  0  0  0  0
   16.2459  -25.6695    0.0000 C   0  0  0  0  0  0  0  0  0  0  0  0
   12.1981  -22.8693    0.0000 O   0  0  0  0  0  0  0  0  0  0  0  0
   12.4522  -22.0857    0.0000 C   0  0  0  0  0  0  0  0  0  0  0  0
  9 10  1  0  0  0  0
 10 13  2  0  0  0  0
  1  9  1  0  0  0  0
 12 11  2  0  0  0  0
 11  8  1  0  0  0  0
  4  5  2  0  0  0  0
  8  3  1  0  0  0  0
 12 13  1  0  0  0  0
  5  6  1  0  0  0  0
 13 14  1  0  0  0  0
 14 15  2  0  0  0  0
  6  7  2  0  0  0  0
 15 16  1  0  0  0  0
  7  2  1  0  0  0  0
 16 17  2  0  0  0  0
 17 12  1  0  0  0  0
  2  3  2  0  0  0  0
 11 18  1  0  0  0  0
  2  1  1  0  0  0  0
 10 19  1  0  0  0  0
  8  9  2  0  0  0  0
  5 20  1  0  0  0  0
  3  4  1  0  0  0  0
 20 21  1  0  0  0  0
M  END
> <From>
www.bindingDB.org

> <BindingDB Reactant_set_id>
95286

> <Ligand InChI>
InChI=1S/C18H16N2O/c1-10-15-9-19-7-6-13(15)11(2)18-17(10)14-8-12(21-3)4-5-16(14)20-18/h4-9,20H,1-3H3

> <Ligand InChI Key>
BKRMCDAOAQWNTG-UHFFFAOYSA-N

> <BindingDB MonomerID>
50174412

> <BindingDB Ligand Name>
9-Methoxy-5,11-dimethyl-6H-pyrido[4,3-b]carbazole::9-Methoxy-5,11-dimethyl-6H-pyrido[4,3-b]carbazole9-OCH3-E::9-methoxy ellipticine::9-methoxyellipticine::CHEMBL19954::O-methylellipticine::cid_72512

> <Target Name>
DNA repair protein RAD51 homolog 1

> <Target Source Organism According to Curator or DataSource>
Homo sapiens

> <Ki (nM)>


> <IC50 (nM)>
 24710

> <Kd (nM)>


> <EC50 (nM)>


> <kon (M-1-s-1)>


> <koff (s-1)>


> <pH>


> <Temp C>


> <Curation/DataSource>
PubChem

> <Article DOI>


> <BindingDB Entry DOI>
10.7270/Q2QN6558

> <PMID>


> <PubChem AID>
aid1437

> <Patent Number>


> <Authors>
PubChem, PC

> <Date of publication>
11/25/2008

> <Date in BindingDB>
5/31/2011

> <Institution>
PCMD

> <Link to Ligand in BindingDB>
http://www.bindingdb.org/bind/chemsearch/marvin/MolStructure.jsp?monomerid=50174412

> <Link to Ligand-Target Pair in BindingDB>
http://www.bindingdb.org/jsp/dbsearch/PrimarySearch_ki.jsp?energyterm=kJ/mole&tag=pol&polymerid=4676&target=DNA+repair+protein+RAD51+homolog+1&column=ki&startPg=0&Increment=50&submit=Search

> <Link to Ligand-Target Pair in BindingDB>
http://www.bindingdb.org/jsp/dbsearch/PrimarySearch_ki.jsp?energyterm=kJ/mole&tag=r21&monomerid=50174412&enzyme=DNA+repair+protein+RAD51+homolog+1&column=ki&startPg=0&Increment=50&submit=Search

> <Ligand HET ID in PDB>


> <PDB ID(s) for Ligand-Target Complex>


> <PubChem CID of Ligand>
72512

> <PubChem SID of Ligand>
104060230

> <ChEBI ID of Ligand>


> <ChEMBL ID of Ligand>
CHEMBL19954

> <DrugBank ID of Ligand>


> <IUPHAR_GRAC ID of Ligand>


> <KEGG ID of Ligand>


> <ZINC ID of Ligand>
ZINC37866067

> <Number of Protein Chains in Target (bigger than 1 implies a multichain complex)>
1

> <BindingDB Target Chain Sequence>
MAMQMQLEANADTSVEEESFGPQPISRLEQCGINANDVKKLEEAGFHTVEAVAYAPKKELINIKGISEAKADKILAEAAKLVPMGFTTATEFHQRRSEIIQITTGSKELDKLLQGGIETGSITEMFGEFRTGKTQICHTLAVTCQLPIDRGGGEGKAMYIDTEGTFRPERLLAVAERYGLSGSDVLDNVAYARAFNTDHQTQLLYQASAMMVESRYALLIVDSATALYRTDYSGRGELSARQMHLARFLRMLLRLADEFGVAVVITNQVVAQVDGAAMFAADPKKPIGGNIIAHASTTRLYLRKGRGETRICKIYDSPCLPEAEAMFAINADGVGDAKD

> <PDB ID(s) of Target Chain>
1N0W,5JZC,5NP7,5NWL,8BQ2,8BR2,8BSC

> <UniProt (SwissProt) Recommended Name of Target Chain>
DNA repair protein RAD51 homolog 1

> <UniProt (SwissProt) Entry Name of Target Chain>
RAD51_HUMAN

> <UniProt (SwissProt) Primary ID of Target Chain>
Q06609

> <UniProt (SwissProt) Secondary ID(s) of Target Chain>
B0FXP0 B2R8T6 Q6FHX9 Q6ZNA8 Q9BV60

> <UniProt (SwissProt) Alternative ID(s) of Target Chain>


> <UniProt (TrEMBL) Submitted Name of Target Chain>


> <UniProt (TrEMBL) Entry Name of Target Chain>


> <UniProt (TrEMBL) Primary ID of Target Chain>


> <UniProt (TrEMBL) Secondary ID(s) of Target Chain>


> <UniProt (TrEMBL) Alternative ID(s) of Target Chain>


$$$$
65558
  Mrv0541 11251415482D          

 35 39  0  0  0  0            999 V2000
    1.6500    0.8250    0.0000 Cl  0  0  0  0  0  0  0  0  0  0  0  0
    2.3644    2.0625    0.0000 O   0  0  0  0  0  0  0  0  0  0  0  0
    2.3644   -2.0625    0.0000 O   0  0  0  0  0  0  0  0  0  0  0  0
    3.1260    5.8474    0.0000 N   0  0  0  0  0  0  0  0  0  0  0  0
    4.4609   -5.8474    0.0000 N   0  0  0  0  0  0  0  0  0  0  0  0
    4.4609    5.8474    0.0000 N   0  0  0  0  0  0  0  0  0  0  0  0
    3.1260   -5.8474    0.0000 N   0  0  0  0  0  0  0  0  0  0  0  0
    3.7934    2.0625    0.0000 N   0  0  0  0  0  0  0  0  0  0  0  0
    3.7934   -2.0625    0.0000 N   0  0  0  0  0  0  0  0  0  0  0  0
    3.3809    6.6320    0.0000 C   0  0  0  0  0  0  0  0  0  0  0  0
    4.2059   -6.6320    0.0000 C   0  0  0  0  0  0  0  0  0  0  0  0
    3.7934    5.3625    0.0000 C   0  0  0  0  0  0  0  0  0  0  0  0
    3.7934   -5.3625    0.0000 C   0  0  0  0  0  0  0  0  0  0  0  0
    4.2059    6.6320    0.0000 C   0  0  0  0  0  0  0  0  0  0  0  0
    3.3809   -6.6320    0.0000 C   0  0  0  0  0  0  0  0  0  0  0  0
    3.7934    4.5375    0.0000 C   0  0  0  0  0  0  0  0  0  0  0  0
    3.7934   -4.5375    0.0000 C   0  0  0  0  0  0  0  0  0  0  0  0
    4.5079    4.1250    0.0000 C   0  0  0  0  0  0  0  0  0  0  0  0
    3.0789    4.1250    0.0000 C   0  0  0  0  0  0  0  0  0  0  0  0
    3.0789   -4.1250    0.0000 C   0  0  0  0  0  0  0  0  0  0  0  0
    4.5079   -4.1250    0.0000 C   0  0  0  0  0  0  0  0  0  0  0  0
    3.7934    2.8875    0.0000 C   0  0  0  0  0  0  0  0  0  0  0  0
    3.7934   -2.8875    0.0000 C   0  0  0  0  0  0  0  0  0  0  0  0
    4.5079    3.3000    0.0000 C   0  0  0  0  0  0  0  0  0  0  0  0
    3.0789    3.3000    0.0000 C   0  0  0  0  0  0  0  0  0  0  0  0
    3.0789   -3.3000    0.0000 C   0  0  0  0  0  0  0  0  0  0  0  0
    4.5079   -3.3000    0.0000 C   0  0  0  0  0  0  0  0  0  0  0  0
    3.0789    0.8250    0.0000 C   0  0  0  0  0  0  0  0  0  0  0  0
    3.0789   -0.8250    0.0000 C   0  0  0  0  0  0  0  0  0  0  0  0
    3.0789    1.6500    0.0000 C   0  0  0  0  0  0  0  0  0  0  0  0
    3.0789   -1.6500    0.0000 C   0  0  0  0  0  0  0  0  0  0  0  0
    2.3644    0.4125    0.0000 C   0  0  0  0  0  0  0  0  0  0  0  0
    3.7934    0.4125    0.0000 C   0  0  0  0  0  0  0  0  0  0  0  0
    2.3644   -0.4125    0.0000 C   0  0  0  0  0  0  0  0  0  0  0  0
    3.7934   -0.4125    0.0000 C   0  0  0  0  0  0  0  0  0  0  0  0
  1 32  1  0  0  0  0
  2 30  2  0  0  0  0
  3 31  2  0  0  0  0
  4 10  1  0  0  0  0
  4 12  1  0  0  0  0
  5 11  1  0  0  0  0
  5 13  1  0  0  0  0
  6 12  2  0  0  0  0
  6 14  1  0  0  0  0
  7 13  2  0  0  0  0
  7 15  1  0  0  0  0
  8 22  1  0  0  0  0
  8 30  1  0  0  0  0
  9 23  1  0  0  0  0
  9 31  1  0  0  0  0
 10 14  1  0  0  0  0
 11 15  1  0  0  0  0
 12 16  1  0  0  0  0
 13 17  1  0  0  0  0
 16 18  2  0  0  0  0
 16 19  1  0  0  0  0
 17 20  2  0  0  0  0
 17 21  1  0  0  0  0
 18 24  1  0  0  0  0
 19 25  2  0  0  0  0
 20 26  1  0  0  0  0
 21 27  2  0  0  0  0
 22 24  2  0  0  0  0
 22 25  1  0  0  0  0
 23 26  2  0  0  0  0
 23 27  1  0  0  0  0
 28 30  1  0  0  0  0
 28 32  2  0  0  0  0
 28 33  1  0  0  0  0
 29 31  1  0  0  0  0
 29 34  2  0  0  0  0
 29 35  1  0  0  0  0
 32 34  1  0  0  0  0
 33 35  2  0  0  0  0
M  END
> <From>
www.bindingDB.org

> <BindingDB Reactant_set_id>
95287

> <Ligand InChI>
InChI=1S/C26H23ClN6O2/c27-22-15-18(25(34)32-19-6-1-16(2-7-19)23-28-11-12-29-23)5-10-21(22)26(35)33-20-8-3-17(4-9-20)24-30-13-14-31-24/h1-10,15H,11-14H2,(H,28,29)(H,30,31)(H,32,34)(H,33,35)

> <Ligand InChI Key>
UJQGBYRKCZQJJS-UHFFFAOYSA-N

> <BindingDB MonomerID>
43864

> <BindingDB Ligand Name>
2-chloranyl-N1,N4-bis[4-(4,5-dihydro-1H-imidazol-2-yl)phenyl]benzene-1,4-dicarboxamide::2-chloro-1-N,4-N-bis[4-(4,5-dihydro-1H-imidazol-2-yl)phenyl]benzene-1,4-dicarboxamide::2-chloro-N,N''''-bis[4-(2-imidazolin-2-yl)phenyl]terephthalamide::2-chloro-N,N''-bis[4-(2-imidazolin-2-yl)phenyl]terephthalamide::2-chloro-N,N'-bis[4-(2-imidazolin-2-yl)phenyl]terephthalamide::2-chloro-N1,N4-bis[4-(4,5-dihydro-1H-imidazol-2-yl)phenyl]benzene-1,4-dicarboxamide::Glycopeptide, 3b::HR 2198::MLS000737368::SMR000528281::cid_65558

> <Target Name>
DNA repair protein RAD51 homolog 1

> <Target Source Organism According to Curator or DataSource>
Homo sapiens

> <Ki (nM)>


> <IC50 (nM)>
 28720

> <Kd (nM)>


> <EC50 (nM)>


> <kon (M-1-s-1)>


> <koff (s-1)>


> <pH>


> <Temp C>


> <Curation/DataSource>
PubChem

> <Article DOI>


> <BindingDB Entry DOI>
10.7270/Q2QN6558

> <PMID>


> <PubChem AID>
aid1437

> <Patent Number>


> <Authors>
PubChem, PC

> <Date of publication>
11/25/2008

> <Date in BindingDB>
5/31/2011

> <Institution>
PCMD

> <Link to Ligand in BindingDB>
http://www.bindingdb.org/bind/chemsearch/marvin/MolStructure.jsp?monomerid=43864

> <Link to Ligand-Target Pair in BindingDB>
http://www.bindingdb.org/jsp/dbsearch/PrimarySearch_ki.jsp?energyterm=kJ/mole&tag=pol&polymerid=4676&target=DNA+repair+protein+RAD51+homolog+1&column=ki&startPg=0&Increment=50&submit=Search

> <Link to Ligand-Target Pair in BindingDB>
http://www.bindingdb.org/jsp/dbsearch/PrimarySearch_ki.jsp?energyterm=kJ/mole&tag=r21&monomerid=43864&enzyme=DNA+repair+protein+RAD51+homolog+1&column=ki&startPg=0&Increment=50&submit=Search

> <Ligand HET ID in PDB>


> <PDB ID(s) for Ligand-Target Complex>


> <PubChem CID of Ligand>
65558

> <PubChem SID of Ligand>
172097707

> <ChEBI ID of Ligand>


> <ChEMBL ID of Ligand>


> <DrugBank ID of Ligand>


> <IUPHAR_GRAC ID of Ligand>


> <KEGG ID of Ligand>


> <ZINC ID of Ligand>
ZINC00538110

> <Number of Protein Chains in Target (bigger than 1 implies a multichain complex)>
1

> <BindingDB Target Chain Sequence>
MAMQMQLEANADTSVEEESFGPQPISRLEQCGINANDVKKLEEAGFHTVEAVAYAPKKELINIKGISEAKADKILAEAAKLVPMGFTTATEFHQRRSEIIQITTGSKELDKLLQGGIETGSITEMFGEFRTGKTQICHTLAVTCQLPIDRGGGEGKAMYIDTEGTFRPERLLAVAERYGLSGSDVLDNVAYARAFNTDHQTQLLYQASAMMVESRYALLIVDSATALYRTDYSGRGELSARQMHLARFLRMLLRLADEFGVAVVITNQVVAQVDGAAMFAADPKKPIGGNIIAHASTTRLYLRKGRGETRICKIYDSPCLPEAEAMFAINADGVGDAKD

> <PDB ID(s) of Target Chain>
1N0W,5JZC,5NP7,5NWL,8BQ2,8BR2,8BSC

> <UniProt (SwissProt) Recommended Name of Target Chain>
DNA repair protein RAD51 homolog 1

> <UniProt (SwissProt) Entry Name of Target Chain>
RAD51_HUMAN

> <UniProt (SwissProt) Primary ID of Target Chain>
Q06609

> <UniProt (SwissProt) Secondary ID(s) of Target Chain>
B0FXP0 B2R8T6 Q6FHX9 Q6ZNA8 Q9BV60

> <UniProt (SwissProt) Alternative ID(s) of Target Chain>


> <UniProt (TrEMBL) Submitted Name of Target Chain>


> <UniProt (TrEMBL) Entry Name of Target Chain>


> <UniProt (TrEMBL) Primary ID of Target Chain>


> <UniProt (TrEMBL) Secondary ID(s) of Target Chain>


> <UniProt (TrEMBL) Alternative ID(s) of Target Chain>


$$$$
5351222
  Mrv0541 11251415482D          

 23 25  0  0  0  0            999 V2000
    2.3112    2.0077    0.0000 O   0  0  0  0  0  0  0  0  0  0  0  0
    6.4924    1.2073    0.0000 O   0  0  0  0  0  0  0  0  0  0  0  0
    5.0810   -1.2156    0.0000 O   0  0  0  0  0  0  0  0  0  0  0  0
    1.6297   -1.6196    0.0000 O   0  0  0  0  0  0  0  0  0  0  0  0
    3.0017   -1.6037    0.0000 O   0  0  0  0  0  0  0  0  0  0  0  0
    5.7625    2.4117    0.0000 O   0  0  0  0  0  0  0  0  0  0  0  0
    3.6961    1.1882    0.0000 N   0  0  0  0  0  0  0  0  0  0  0  0
    3.6961   -0.3960    0.0000 N   0  0  0  0  0  0  0  0  0  0  0  0
    4.3822    0.7922    0.0000 C   0  0  0  0  0  0  0  0  0  0  0  0
    3.0101    0.7922    0.0000 C   0  0  0  0  0  0  0  0  0  0  0  0
    3.0101    0.0000    0.0000 C   0  0  0  0  0  0  0  0  0  0  0  0
    4.3822    0.0000    0.0000 C   0  0  0  0  0  0  0  0  0  0  0  0
    5.0902    1.2156    0.0000 C   0  0  0  0  0  0  0  0  0  0  0  0
    2.3021   -0.4235    0.0000 C   0  0  0  0  0  0  0  0  0  0  0  0
    2.3021    1.2156    0.0000 C   0  0  0  0  0  0  0  0  0  0  0  0
    5.0902   -0.4235    0.0000 C   0  0  0  0  0  0  0  0  0  0  0  0
    5.8080    0.8087    0.0000 C   0  0  0  0  0  0  0  0  0  0  0  0
    1.5843   -0.0165    0.0000 C   0  0  0  0  0  0  0  0  0  0  0  0
    1.5843    0.8087    0.0000 C   0  0  0  0  0  0  0  0  0  0  0  0
    5.8080   -0.0165    0.0000 C   0  0  0  0  0  0  0  0  0  0  0  0
    2.3112   -1.2156    0.0000 C   0  0  0  0  0  0  0  0  0  0  0  0
    5.0810    2.0077    0.0000 C   0  0  0  0  0  0  0  0  0  0  0  0
    1.6389   -2.4117    0.0000 C   0  0  0  0  0  0  0  0  0  0  0  0
  1 15  1  0  0  0  0
  2 17  1  0  0  0  0
  3 16  1  0  0  0  0
  4 21  1  0  0  0  0
  4 23  1  0  0  0  0
  5 21  2  0  0  0  0
  6 22  2  0  0  0  0
  7  9  1  0  0  0  0
  7 10  2  0  0  0  0
  8 11  2  0  0  0  0
  8 12  1  0  0  0  0
  9 12  1  0  0  0  0
  9 13  2  0  0  0  0
 10 11  1  0  0  0  0
 10 15  1  0  0  0  0
 11 14  1  0  0  0  0
 12 16  2  0  0  0  0
 13 17  1  0  0  0  0
 13 22  1  0  0  0  0
 14 18  2  0  0  0  0
 14 21  1  0  0  0  0
 15 19  2  0  0  0  0
 16 20  1  0  0  0  0
 17 20  2  0  0  0  0
 18 19  1  0  0  0  0
M  END
> <From>
www.bindingDB.org

> <BindingDB Reactant_set_id>
95288

> <Ligand InChI>
InChI=1S/C15H10N2O6/c1-23-15(22)6-2-3-8(19)13-11(6)16-14-10(21)4-9(20)7(5-18)12(14)17-13/h2-5,19-21H,1H3

> <Ligand InChI Key>
CRANETCJDDEINO-UHFFFAOYSA-N

> <BindingDB MonomerID>
43865

> <BindingDB Ligand Name>
6-formyl-4,7-dihydroxy-9-keto-5H-phenazine-1-carboxylic acid methyl ester::6-formyl-4,7-dihydroxy-9-oxo-5H-phenazine-1-carboxylic acid methyl ester::Glycopeptide, 4::Lomofungin::MLS000766240::SMR000528852::cid_5351222::methyl 6-formyl-4,7-dihydroxy-9-oxo-5H-phenazine-1-carboxylate::methyl 6-methanoyl-4,7-bis(oxidanyl)-9-oxidanylidene-5H-phenazine-1-carboxylate

> <Target Name>
DNA repair protein RAD51 homolog 1

> <Target Source Organism According to Curator or DataSource>
Homo sapiens

> <Ki (nM)>


> <IC50 (nM)>
 24840

> <Kd (nM)>


> <EC50 (nM)>


> <kon (M-1-s-1)>


> <koff (s-1)>


> <pH>


> <Temp C>


> <Curation/DataSource>
PubChem

> <Article DOI>


> <BindingDB Entry DOI>
10.7270/Q2QN6558

> <PMID>


> <PubChem AID>
aid1437

> <Patent Number>


> <Authors>
PubChem, PC

> <Date of publication>
11/25/2008

> <Date in BindingDB>
5/31/2011

> <Institution>
PCMD

> <Link to Ligand in BindingDB>
http://www.bindingdb.org/bind/chemsearch/marvin/MolStructure.jsp?monomerid=43865

> <Link to Ligand-Target Pair in BindingDB>
http://www.bindingdb.org/jsp/dbsearch/PrimarySearch_ki.jsp?energyterm=kJ/mole&tag=pol&polymerid=4676&target=DNA+repair+protein+RAD51+homolog+1&column=ki&startPg=0&Increment=50&submit=Search

> <Link to Ligand-Target Pair in BindingDB>
http://www.bindingdb.org/jsp/dbsearch/PrimarySearch_ki.jsp?energyterm=kJ/mole&tag=r21&monomerid=43865&enzyme=DNA+repair+protein+RAD51+homolog+1&column=ki&startPg=0&Increment=50&submit=Search

> <Ligand HET ID in PDB>


> <PDB ID(s) for Ligand-Target Complex>


> <PubChem CID of Ligand>
5351222

> <PubChem SID of Ligand>
172097708

> <ChEBI ID of Ligand>


> <ChEMBL ID of Ligand>


> <DrugBank ID of Ligand>


> <IUPHAR_GRAC ID of Ligand>


> <KEGG ID of Ligand>


> <ZINC ID of Ligand>
ZINC13130211

> <Number of Protein Chains in Target (bigger than 1 implies a multichain complex)>
1

> <BindingDB Target Chain Sequence>
MAMQMQLEANADTSVEEESFGPQPISRLEQCGINANDVKKLEEAGFHTVEAVAYAPKKELINIKGISEAKADKILAEAAKLVPMGFTTATEFHQRRSEIIQITTGSKELDKLLQGGIETGSITEMFGEFRTGKTQICHTLAVTCQLPIDRGGGEGKAMYIDTEGTFRPERLLAVAERYGLSGSDVLDNVAYARAFNTDHQTQLLYQASAMMVESRYALLIVDSATALYRTDYSGRGELSARQMHLARFLRMLLRLADEFGVAVVITNQVVAQVDGAAMFAADPKKPIGGNIIAHASTTRLYLRKGRGETRICKIYDSPCLPEAEAMFAINADGVGDAKD

> <PDB ID(s) of Target Chain>
1N0W,5JZC,5NP7,5NWL,8BQ2,8BR2,8BSC

> <UniProt (SwissProt) Recommended Name of Target Chain>
DNA repair protein RAD51 homolog 1

> <UniProt (SwissProt) Entry Name of Target Chain>
RAD51_HUMAN

> <UniProt (SwissProt) Primary ID of Target Chain>
Q06609

> <UniProt (SwissProt) Secondary ID(s) of Target Chain>
B0FXP0 B2R8T6 Q6FHX9 Q6ZNA8 Q9BV60

> <UniProt (SwissProt) Alternative ID(s) of Target Chain>


> <UniProt (TrEMBL) Submitted Name of Target Chain>


> <UniProt (TrEMBL) Entry Name of Target Chain>


> <UniProt (TrEMBL) Primary ID of Target Chain>


> <UniProt (TrEMBL) Secondary ID(s) of Target Chain>


> <UniProt (TrEMBL) Alternative ID(s) of Target Chain>


$$$$
457193
  Mrv0541 11251415482D          

 90 96  0  0  1  0            999 V2000
   13.6869    2.4519    0.0000 O   0  0  0  0  0  0  0  0  0  0  0  0
    5.0461    1.1985    0.0000 O   0  0  0  0  0  0  0  0  0  0  0  0
   11.6429    1.8522    0.0000 O   0  0  0  0  0  0  0  0  0  0  0  0
    4.4957   -0.8592    0.0000 O   0  0  0  0  0  0  0  0  0  0  0  0
   10.3814    0.2363    0.0000 O   0  0  0  0  0  0  0  0  0  0  0  0
    5.2203   -2.7770    0.0000 O   0  0  0  0  0  0  0  0  0  0  0  0
   13.3237    0.0714    0.0000 O   0  0  0  0  0  0  0  0  0  0  0  0
    6.8909   -0.3494    0.0000 O   0  0  0  0  0  0  0  0  0  0  0  0
    8.6067    3.3358    0.0000 O   0  0  0  0  0  0  0  0  0  0  0  0
    1.6499   -2.6816    0.0000 O   0  0  0  0  0  0  0  0  0  0  0  0
    8.9527    0.2198    0.0000 O   0  0  0  0  0  0  0  0  0  0  0  0
    4.4916   -4.0061    0.0000 O   0  0  0  0  0  0  0  0  0  0  0  0
    9.7525   -3.6943    0.0000 O   0  0  0  0  0  0  0  0  0  0  0  0
   10.4757   -0.7866    0.0000 O   0  0  0  0  0  0  0  0  0  0  0  0
    7.6005   -0.7701    0.0000 O   0  0  0  0  0  0  0  0  0  0  0  0
   12.6647   -3.7142    0.0000 O   0  0  0  0  0  0  0  0  0  0  0  0
   12.4514    3.2905    0.0000 N   0  0  0  0  0  0  0  0  0  0  0  0
    3.6875    0.5791    0.0000 N   0  0  0  0  0  0  0  0  0  0  0  0
   10.3973    2.5522    0.0000 N   0  0  0  0  0  0  0  0  0  0  0  0
    3.2501   -1.5593    0.0000 N   0  0  0  0  0  0  0  0  0  0  0  0
   12.5951    1.3005    0.0000 N   0  0  0  0  0  0  0  0  0  0  0  0
    5.4620   -0.3329    0.0000 N   0  0  0  0  0  0  0  0  0  0  0  0
    9.0627    2.0420    0.0000 N   0  0  0  0  0  0  0  0  0  0  0  0
    2.9922   -2.9648    0.0000 N   0  0  0  0  0  0  0  0  0  0  0  0
   11.9045   -0.7701    0.0000 N   0  0  0  0  0  0  0  0  0  0  0  0
    6.8717   -1.9992    0.0000 N   0  0  0  0  0  0  0  0  0  0  0  0
    9.7525   -2.0444    0.0000 N   0  0  0  0  0  0  0  0  0  0  0  0
   12.6647   -2.0244    0.0000 N   0  0  0  0  0  0  0  0  0  0  0  0
   11.6264    3.2811    0.0000 C   0  0  1  0  0  0  0  0  0  0  0  0
    3.2667   -0.1306    0.0000 C   0  0  1  0  0  0  0  0  0  0  0  0
   11.3660    4.0586    0.0000 C   0  0  0  0  0  0  0  0  0  0  0  0
    2.4669    0.0512    0.0000 C   0  0  0  0  0  0  0  0  0  0  0  0
   12.0243    4.5478    0.0000 C   0  0  0  0  0  0  0  0  0  0  0  0
   12.6938    4.0740    0.0000 C   0  0  0  0  0  0  0  0  0  0  0  0
    2.3914    0.8678    0.0000 C   0  0  0  0  0  0  0  0  0  0  0  0
    3.1441    1.1934    0.0000 C   0  0  0  0  0  0  0  0  0  0  0  0
   12.8720    2.5809    0.0000 C   0  0  0  0  0  0  0  0  0  0  0  0
   13.1716    1.8905    0.0000 C   0  0  1  0  0  0  0  0  0  0  0  0
    4.5123    0.5695    0.0000 C   0  0  0  0  0  0  0  0  0  0  0  0
    5.2579    0.4665    0.0000 C   0  0  1  0  0  0  0  0  0  0  0  0
   11.2223    2.5618    0.0000 C   0  0  0  0  0  0  0  0  0  0  0  0
    3.6709   -0.8497    0.0000 C   0  0  0  0  0  0  0  0  0  0  0  0
   13.9912    1.7965    0.0000 C   0  0  0  0  0  0  0  0  0  0  0  0
    5.7642    1.1177    0.0000 C   0  0  0  0  0  0  0  0  0  0  0  0
   14.3197    1.0398    0.0000 C   0  0  0  0  0  0  0  0  0  0  0  0
   14.4823    2.4593    0.0000 C   0  0  0  0  0  0  0  0  0  0  0  0
    6.5814    1.0048    0.0000 C   0  0  0  0  0  0  0  0  0  0  0  0
    5.4532    1.8818    0.0000 C   0  0  0  0  0  0  0  0  0  0  0  0
    9.9766    3.2619    0.0000 C   0  0  0  0  0  0  0  0  0  0  0  0
    2.4252   -1.5498    0.0000 C   0  0  0  0  0  0  0  0  0  0  0  0
   12.6046    0.4755    0.0000 C   0  0  0  0  0  0  0  0  0  0  0  0
    6.1717   -0.7537    0.0000 C   0  0  0  0  0  0  0  0  0  0  0  0
   11.8949    0.0548    0.0000 C   0  0  2  0  0  0  0  0  0  0  0  0
    6.1622   -1.5785    0.0000 C   0  0  2  0  0  0  0  0  0  0  0  0
    9.9931    1.8332    0.0000 C   0  0  0  0  0  0  0  0  0  0  0  0
    3.6544   -2.2785    0.0000 C   0  0  0  0  0  0  0  0  0  0  0  0
   11.1758    0.4590    0.0000 C   0  0  1  0  0  0  0  0  0  0  0  0
    5.4430   -1.9827    0.0000 C   0  0  1  0  0  0  0  0  0  0  0  0
    9.6528    1.4654    0.0000 C   0  0  1  0  0  0  0  0  0  0  0  0
    3.7915   -2.7605    0.0000 C   0  0  1  0  0  0  0  0  0  0  0  0
    9.2670    2.8412    0.0000 C   0  0  0  0  0  0  0  0  0  0  0  0
    2.4156   -2.3747    0.0000 C   0  0  0  0  0  0  0  0  0  0  0  0
   10.4765    1.5109    0.0000 C   0  0  0  0  0  0  0  0  0  0  0  0
    4.1809   -2.0332    0.0000 C   0  0  0  0  0  0  0  0  0  0  0  0
    9.6623    0.6405    0.0000 C   0  0  0  0  0  0  0  0  0  0  0  0
    4.5012   -3.1812    0.0000 C   0  0  0  0  0  0  0  0  0  0  0  0
   11.2741    1.2781    0.0000 C   0  0  0  0  0  0  0  0  0  0  0  0
    4.7944   -1.4729    0.0000 C   0  0  0  0  0  0  0  0  0  0  0  0
    8.2684    1.8192    0.0000 C   0  0  0  0  0  0  0  0  0  0  0  0
    2.7696   -3.7592    0.0000 C   0  0  0  0  0  0  0  0  0  0  0  0
   10.6643    0.7076    0.0000 C   0  0  0  0  0  0  0  0  0  0  0  0
   11.0782    2.0753    0.0000 C   0  0  0  0  0  0  0  0  0  0  0  0
    4.7312   -2.6478    0.0000 C   0  0  0  0  0  0  0  0  0  0  0  0
    4.0116   -1.2257    0.0000 C   0  0  0  0  0  0  0  0  0  0  0  0
   11.1949   -1.1908    0.0000 C   0  0  0  0  0  0  0  0  0  0  0  0
    7.5910   -1.5950    0.0000 C   0  0  0  0  0  0  0  0  0  0  0  0
   11.2044   -2.0157    0.0000 C   0  0  0  0  0  0  0  0  0  0  0  0
    8.3006   -2.0157    0.0000 C   0  0  0  0  0  0  0  0  0  0  0  0
   10.4669   -2.4568    0.0000 C   0  0  0  0  0  0  0  0  0  0  0  0
    9.0381   -2.4568    0.0000 C   0  0  0  0  0  0  0  0  0  0  0  0
   11.9519   -2.4395    0.0000 C   0  0  0  0  0  0  0  0  0  0  0  0
   10.4669   -3.2818    0.0000 C   0  0  0  0  0  0  0  0  0  0  0  0
    9.0381   -3.2818    0.0000 C   0  0  0  0  0  0  0  0  0  0  0  0
    7.5531   -2.4395    0.0000 C   0  0  0  0  0  0  0  0  0  0  0  0
   11.2044   -3.7229    0.0000 C   0  0  0  0  0  0  0  0  0  0  0  0
    8.3006   -3.7229    0.0000 C   0  0  0  0  0  0  0  0  0  0  0  0
   11.9519   -3.2990    0.0000 C   0  0  0  0  0  0  0  0  0  0  0  0
    7.5531   -3.2990    0.0000 C   0  0  0  0  0  0  0  0  0  0  0  0
   11.1949   -4.5478    0.0000 C   0  0  0  0  0  0  0  0  0  0  0  0
    8.3101   -4.5478    0.0000 C   0  0  0  0  0  0  0  0  0  0  0  0
  1 37  2  0  0  0  0
  2 39  2  0  0  0  0
  3 41  2  0  0  0  0
  4 42  2  0  0  0  0
 57  5  1  0  0  0  0
  5 65  1  0  0  0  0
 58  6  1  0  0  0  0
  6 66  1  0  0  0  0
  7 51  2  0  0  0  0
  8 52  2  0  0  0  0
  9 61  2  0  0  0  0
 10 62  2  0  0  0  0
 11 65  2  0  0  0  0
 12 66  2  0  0  0  0
 13 82  1  0  0  0  0
 13 83  1  0  0  0  0
 14 75  2  0  0  0  0
 15 76  2  0  0  0  0
 16 87  2  0  0  0  0
 29 17  1  6  0  0  0
 17 34  1  0  0  0  0
 17 37  1  0  0  0  0
 30 18  1  6  0  0  0
 18 36  1  0  0  0  0
 18 39  1  0  0  0  0
 19 41  1  0  0  0  0
 19 49  1  0  0  0  0
 19 55  1  0  0  0  0
 20 42  1  0  0  0  0
 20 50  1  0  0  0  0
 20 56  1  0  0  0  0
 38 21  1  0  0  0  0
 21 51  1  0  0  0  0
 40 22  1  0  0  0  0
 22 52  1  0  0  0  0
 59 23  1  0  0  0  0
 23 61  1  0  0  0  0
 23 69  1  0  0  0  0
 60 24  1  0  0  0  0
 24 62  1  0  0  0  0
 24 70  1  0  0  0  0
 53 25  1  1  0  0  0
 25 75  1  0  0  0  0
 54 26  1  1  0  0  0
 26 76  1  0  0  0  0
 27 79  2  0  0  0  0
 27 80  1  0  0  0  0
 28 81  1  0  0  0  0
 29 31  1  0  0  0  0
 29 41  1  0  0  0  0
 30 32  1  0  0  0  0
 30 42  1  0  0  0  0
 31 33  1  0  0  0  0
 32 35  1  0  0  0  0
 33 34  1  0  0  0  0
 35 36  1  0  0  0  0
 38 37  1  0  0  0  0
 38 43  1  1  0  0  0
 40 39  1  0  0  0  0
 40 44  1  1  0  0  0
 43 45  1  0  0  0  0
 43 46  1  0  0  0  0
 44 47  1  0  0  0  0
 44 48  1  0  0  0  0
 49 61  1  0  0  0  0
 50 62  1  0  0  0  0
 53 51  1  0  0  0  0
 54 52  1  0  0  0  0
 53 57  1  0  0  0  0
 54 58  1  0  0  0  0
 57 67  1  6  0  0  0
 58 68  1  6  0  0  0
 59 63  1  1  0  0  0
 59 65  1  0  0  0  0
 60 64  1  1  0  0  0
 60 66  1  0  0  0  0
 63 71  1  0  0  0  0
 63 72  1  0  0  0  0
 64 73  1  0  0  0  0
 64 74  1  0  0  0  0
 75 77  1  0  0  0  0
 76 78  1  0  0  0  0
 77 79  1  0  0  0  0
 77 81  2  0  0  0  0
 78 80  2  0  0  0  0
 78 84  1  0  0  0  0
 79 82  1  0  0  0  0
 80 83  1  0  0  0  0
 81 87  1  0  0  0  0
 82 85  2  0  0  0  0
 83 86  2  0  0  0  0
 84 88  2  0  0  0  0
 85 87  1  0  0  0  0
 85 89  1  0  0  0  0
 86 88  1  0  0  0  0
 86 90  1  0  0  0  0
M  END
> <From>
www.bindingDB.org

> <BindingDB Reactant_set_id>
95289

> <Ligand InChI>
InChI=1S/C62H86N12O16/c1-27(2)42-59(84)73-23-17-19-36(73)57(82)69(13)25-38(75)71(15)48(29(5)6)61(86)88-33(11)44(55(80)65-42)67-53(78)35-22-21-31(9)51-46(35)64-47-40(41(63)50(77)32(10)52(47)90-51)54(79)68-45-34(12)89-62(87)49(30(7)8)72(16)39(76)26-70(14)58(83)37-20-18-24-74(37)60(85)43(28(3)4)66-56(45)81/h21-22,27-30,33-34,36-37,42-45,48-49H,17-20,23-26,63H2,1-16H3,(H,65,80)(H,66,81)(H,67,78)(H,68,79)/t33-,34-,36+,37+,42-,43-,44+,45+,48+,49+/m1/s1

> <Ligand InChI Key>
RJURFGZVJUQBHK-IIXSONLDSA-N

> <BindingDB MonomerID>
43866

> <BindingDB Ligand Name>
2-amino-4,6-dimethyl-3-oxo-1-N,9-N-bis[(3R,6S,7R,10S,16S)-7,11,14-trimethyl-2,5,9,12,15-pentaoxo-3,10-di(propan-2-yl)-8-oxa-1,4,11,14-tetrazabicyclo[14.3.0]nonadecan-6-yl]phenoxazine-1,9-dicarboxamide::2-amino-4,6-dimethyl-3-oxo-N1,N9-bis[(3R,6S,7R,10S,16S)-7,11,14-trimethyl-2,5,9,12,15-pentaoxo-3,10-di(propan-2-yl)-8-oxa-1,4,11,14-tetrazabicyclo[14.3.0]nonadecan-6-yl]phenoxazine-1,9-dicarboxamide::2-amino-N,N''''-bis[(3R,6S,7R,10S,16S)-3,10-diisopropyl-2,5,9,12,15-pentaketo-7,11,14-trimethyl-8-oxa-1,4,11,14-tetrazabicyclo[14.3.0]nonadecan-6-yl]-3-keto-4,6-dimethyl-phenoxazine-1,9-dicarboxamide::2-amino-N,N''-bis[(3R,6S,7R,10S,16S)-3,10-diisopropyl-2,5,9,12,15-pentaketo-7,11,14-trimethyl-8-oxa-1,4,11,14-tetrazabicyclo[14.3.0]nonadecan-6-yl]-3-keto-4,6-dimethyl-phenoxazine-1,9-dicarboxamide::2-amino-N,N'-bis[(3R,6S,7R,10S,16S)-3,10-diisopropyl-2,5,9,12,15-pentaketo-7,11,14-trimethyl-8-oxa-1,4,11,14-tetrazabicyclo[14.3.0]nonadecan-6-yl]-3-keto-4,6-dimethyl-phenoxazine-1,9-dicarboxamide::2-azanyl-4,6-dimethyl-3-oxidanylidene-N1,N9-bis[(3R,6S,7R,10S,16S)-7,11,14-trimethyl-2,5,9,12,15-pentakis(oxidanylidene)-3,10-di(propan-2-yl)-8-oxa-1,4,11,14-tetrazabicyclo[14.3.0]nonadecan-6-yl]phenoxazine-1,9-dicarboxamide::DACTINOMYCIN::Glycopeptide, 4a::MLS001424196::SMR000469227::cid_457193

> <Target Name>
DNA repair protein RAD51 homolog 1

> <Target Source Organism According to Curator or DataSource>
Homo sapiens

> <Ki (nM)>


> <IC50 (nM)>
 32100

> <Kd (nM)>


> <EC50 (nM)>


> <kon (M-1-s-1)>


> <koff (s-1)>


> <pH>


> <Temp C>


> <Curation/DataSource>
PubChem

> <Article DOI>


> <BindingDB Entry DOI>
10.7270/Q2QN6558

> <PMID>


> <PubChem AID>
aid1437

> <Patent Number>


> <Authors>
PubChem, PC

> <Date of publication>
11/25/2008

> <Date in BindingDB>
5/31/2011

> <Institution>
PCMD

> <Link to Ligand in BindingDB>
http://www.bindingdb.org/bind/chemsearch/marvin/MolStructure.jsp?monomerid=43866

> <Link to Ligand-Target Pair in BindingDB>
http://www.bindingdb.org/jsp/dbsearch/PrimarySearch_ki.jsp?energyterm=kJ/mole&tag=pol&polymerid=4676&target=DNA+repair+protein+RAD51+homolog+1&column=ki&startPg=0&Increment=50&submit=Search

> <Link to Ligand-Target Pair in BindingDB>
http://www.bindingdb.org/jsp/dbsearch/PrimarySearch_ki.jsp?energyterm=kJ/mole&tag=r21&monomerid=43866&enzyme=DNA+repair+protein+RAD51+homolog+1&column=ki&startPg=0&Increment=50&submit=Search

> <Ligand HET ID in PDB>


> <PDB ID(s) for Ligand-Target Complex>


> <PubChem CID of Ligand>
457193

> <PubChem SID of Ligand>
172097709

> <ChEBI ID of Ligand>
27666

> <ChEMBL ID of Ligand>


> <DrugBank ID of Ligand>
DB00970

> <IUPHAR_GRAC ID of Ligand>


> <KEGG ID of Ligand>
C06770

> <ZINC ID of Ligand>


> <Number of Protein Chains in Target (bigger than 1 implies a multichain complex)>
1

> <BindingDB Target Chain Sequence>
MAMQMQLEANADTSVEEESFGPQPISRLEQCGINANDVKKLEEAGFHTVEAVAYAPKKELINIKGISEAKADKILAEAAKLVPMGFTTATEFHQRRSEIIQITTGSKELDKLLQGGIETGSITEMFGEFRTGKTQICHTLAVTCQLPIDRGGGEGKAMYIDTEGTFRPERLLAVAERYGLSGSDVLDNVAYARAFNTDHQTQLLYQASAMMVESRYALLIVDSATALYRTDYSGRGELSARQMHLARFLRMLLRLADEFGVAVVITNQVVAQVDGAAMFAADPKKPIGGNIIAHASTTRLYLRKGRGETRICKIYDSPCLPEAEAMFAINADGVGDAKD

> <PDB ID(s) of Target Chain>
1N0W,5JZC,5NP7,5NWL,8BQ2,8BR2,8BSC

> <UniProt (SwissProt) Recommended Name of Target Chain>
DNA repair protein RAD51 homolog 1

> <UniProt (SwissProt) Entry Name of Target Chain>
RAD51_HUMAN

> <UniProt (SwissProt) Primary ID of Target Chain>
Q06609

> <UniProt (SwissProt) Secondary ID(s) of Target Chain>
B0FXP0 B2R8T6 Q6FHX9 Q6ZNA8 Q9BV60

> <UniProt (SwissProt) Alternative ID(s) of Target Chain>


> <UniProt (TrEMBL) Submitted Name of Target Chain>


> <UniProt (TrEMBL) Entry Name of Target Chain>


> <UniProt (TrEMBL) Primary ID of Target Chain>


> <UniProt (TrEMBL) Secondary ID(s) of Target Chain>


> <UniProt (TrEMBL) Alternative ID(s) of Target Chain>


$$$$
646328
  Mrv0541 11251415372D          

 18 19  0  0  0  0            999 V2000
    4.3847    1.9398    0.0000 O   0  0  0  0  0  0  0  0  0  0  0  0
    2.9558    1.9398    0.0000 O   0  0  0  0  0  0  0  0  0  0  0  0
    4.3847   -2.1853    0.0000 O   0  0  0  0  0  0  0  0  0  0  0  0
    2.8696   -3.0058    0.0000 O   0  0  0  0  0  0  0  0  0  0  0  0
    3.6703   -0.9478    0.0000 N   0  0  0  0  0  0  0  0  0  0  0  0
    3.6703    0.7023    0.0000 C   0  0  0  0  0  0  0  0  0  0  0  0
    4.3847    0.2897    0.0000 C   0  0  0  0  0  0  0  0  0  0  0  0
    2.9558    0.2897    0.0000 C   0  0  0  0  0  0  0  0  0  0  0  0
    2.9558   -0.5353    0.0000 C   0  0  0  0  0  0  0  0  0  0  0  0
    4.3847   -0.5353    0.0000 C   0  0  0  0  0  0  0  0  0  0  0  0
    3.6703    1.5273    0.0000 C   0  0  0  0  0  0  0  0  0  0  0  0
    3.6703   -1.7728    0.0000 C   0  0  0  0  0  0  0  0  0  0  0  0
    2.9558   -2.1853    0.0000 C   0  0  0  0  0  0  0  0  0  0  0  0
    4.3847    2.7648    0.0000 C   0  0  0  0  0  0  0  0  0  0  0  0
    2.2021   -1.8497    0.0000 C   0  0  0  0  0  0  0  0  0  0  0  0
    5.0993    3.1773    0.0000 C   0  0  0  0  0  0  0  0  0  0  0  0
    1.6500   -2.4628    0.0000 C   0  0  0  0  0  0  0  0  0  0  0  0
    2.0625   -3.1773    0.0000 C   0  0  0  0  0  0  0  0  0  0  0  0
  1 11  1  0  0  0  0
  1 14  1  0  0  0  0
  2 11  2  0  0  0  0
  3 12  2  0  0  0  0
  4 13  1  0  0  0  0
  4 18  1  0  0  0  0
  5  9  1  0  0  0  0
  5 10  1  0  0  0  0
  5 12  1  0  0  0  0
  6  7  1  0  0  0  0
  6  8  1  0  0  0  0
  6 11  1  0  0  0  0
  7 10  1  0  0  0  0
  8  9  1  0  0  0  0
 12 13  1  0  0  0  0
 13 15  2  0  0  0  0
 14 16  1  0  0  0  0
 15 17  1  0  0  0  0
 17 18  2  0  0  0  0
M  END
> <From>
www.bindingDB.org

> <BindingDB Reactant_set_id>
108143

> <Ligand InChI>
InChI=1S/C13H17NO4/c1-2-17-13(16)10-5-7-14(8-6-10)12(15)11-4-3-9-18-11/h3-4,9-10H,2,5-8H2,1H3

> <Ligand InChI Key>
GZBGPLYWYCOXHU-UHFFFAOYSA-N

> <BindingDB MonomerID>
37352

> <BindingDB Ligand Name>
1-(2-furoyl)isonipecotic acid ethyl ester::1-(Furan-2-carbonyl)-piperidine-4-carboxylic acid ethyl ester::1-[2-furanyl(oxo)methyl]-4-piperidinecarboxylic acid ethyl ester::MLS000075775::SMR000009550::cid_646328::ethyl 1-(furan-2-carbonyl)piperidine-4-carboxylate::ethyl 1-(furan-2-ylcarbonyl)piperidine-4-carboxylate

> <Target Name>
DNA repair protein RAD51 homolog 1

> <Target Source Organism According to Curator or DataSource>
Homo sapiens

> <Ki (nM)>


> <IC50 (nM)>
 85000

> <Kd (nM)>


> <EC50 (nM)>


> <kon (M-1-s-1)>


> <koff (s-1)>


> <pH>


> <Temp C>


> <Curation/DataSource>
PubChem

> <Article DOI>


> <BindingDB Entry DOI>
10.7270/Q2BV7F1T

> <PMID>


> <PubChem AID>
aid1435

> <Patent Number>


> <Authors>
PubChem, PC

> <Date of publication>
11/21/2008

> <Date in BindingDB>
6/8/2011

> <Institution>
PCMD

> <Link to Ligand in BindingDB>
http://www.bindingdb.org/bind/chemsearch/marvin/MolStructure.jsp?monomerid=37352

> <Link to Ligand-Target Pair in BindingDB>
http://www.bindingdb.org/jsp/dbsearch/PrimarySearch_ki.jsp?energyterm=kJ/mole&tag=pol&polymerid=4676&target=DNA+repair+protein+RAD51+homolog+1&column=ki&startPg=0&Increment=50&submit=Search

> <Link to Ligand-Target Pair in BindingDB>
http://www.bindingdb.org/jsp/dbsearch/PrimarySearch_ki.jsp?energyterm=kJ/mole&tag=r21&monomerid=37352&enzyme=DNA+repair+protein+RAD51+homolog+1&column=ki&startPg=0&Increment=50&submit=Search

> <Ligand HET ID in PDB>


> <PDB ID(s) for Ligand-Target Complex>


> <PubChem CID of Ligand>
646328

> <PubChem SID of Ligand>
252618323

> <ChEBI ID of Ligand>


> <ChEMBL ID of Ligand>


> <DrugBank ID of Ligand>


> <IUPHAR_GRAC ID of Ligand>


> <KEGG ID of Ligand>


> <ZINC ID of Ligand>
ZINC00288483

> <Number of Protein Chains in Target (bigger than 1 implies a multichain complex)>
1

> <BindingDB Target Chain Sequence>
MAMQMQLEANADTSVEEESFGPQPISRLEQCGINANDVKKLEEAGFHTVEAVAYAPKKELINIKGISEAKADKILAEAAKLVPMGFTTATEFHQRRSEIIQITTGSKELDKLLQGGIETGSITEMFGEFRTGKTQICHTLAVTCQLPIDRGGGEGKAMYIDTEGTFRPERLLAVAERYGLSGSDVLDNVAYARAFNTDHQTQLLYQASAMMVESRYALLIVDSATALYRTDYSGRGELSARQMHLARFLRMLLRLADEFGVAVVITNQVVAQVDGAAMFAADPKKPIGGNIIAHASTTRLYLRKGRGETRICKIYDSPCLPEAEAMFAINADGVGDAKD

> <PDB ID(s) of Target Chain>
1N0W,5JZC,5NP7,5NWL,8BQ2,8BR2,8BSC

> <UniProt (SwissProt) Recommended Name of Target Chain>
DNA repair protein RAD51 homolog 1

> <UniProt (SwissProt) Entry Name of Target Chain>
RAD51_HUMAN

> <UniProt (SwissProt) Primary ID of Target Chain>
Q06609

> <UniProt (SwissProt) Secondary ID(s) of Target Chain>
B0FXP0 B2R8T6 Q6FHX9 Q6ZNA8 Q9BV60

> <UniProt (SwissProt) Alternative ID(s) of Target Chain>


> <UniProt (TrEMBL) Submitted Name of Target Chain>


> <UniProt (TrEMBL) Entry Name of Target Chain>


> <UniProt (TrEMBL) Primary ID of Target Chain>


> <UniProt (TrEMBL) Secondary ID(s) of Target Chain>


> <UniProt (TrEMBL) Alternative ID(s) of Target Chain>


$$$$
649572
  Mrv0541 11191410422D          

 27 29  0  0  0  0            999 V2000
    5.9370   -0.8250    0.0000 O   0  0  0  0  0  0  0  0  0  0  0  0
    3.0790   -1.6500    0.0000 O   0  0  0  0  0  0  0  0  0  0  0  0
    5.9370   -3.3001    0.0000 O   0  0  0  0  0  0  0  0  0  0  0  0
    5.2224    2.0625    0.0000 N   0  0  0  0  0  0  0  0  0  0  0  0
    4.5080   -0.8250    0.0000 N   0  0  0  0  0  0  0  0  0  0  0  0
    4.5080    3.3001    0.0000 N   0  0  0  0  0  0  0  0  0  0  0  0
    5.9370    3.3001    0.0000 N   0  0  0  0  0  0  0  0  0  0  0  0
    5.2224    0.4125    0.0000 C   0  0  0  0  0  0  0  0  0  0  0  0
    5.9370    0.8250    0.0000 C   0  0  0  0  0  0  0  0  0  0  0  0
    4.5080    0.8250    0.0000 C   0  0  0  0  0  0  0  0  0  0  0  0
    4.5080    1.6500    0.0000 C   0  0  0  0  0  0  0  0  0  0  0  0
    5.9370    1.6500    0.0000 C   0  0  0  0  0  0  0  0  0  0  0  0
    5.2224   -0.4125    0.0000 C   0  0  0  0  0  0  0  0  0  0  0  0
    5.2224    2.8876    0.0000 C   0  0  0  0  0  0  0  0  0  0  0  0
    4.5080   -1.6500    0.0000 C   0  0  0  0  0  0  0  0  0  0  0  0
    3.7935   -2.0625    0.0000 C   0  0  0  0  0  0  0  0  0  0  0  0
    5.2224   -2.0625    0.0000 C   0  0  0  0  0  0  0  0  0  0  0  0
    4.5080    4.1251    0.0000 C   0  0  0  0  0  0  0  0  0  0  0  0
    5.9370    4.1251    0.0000 C   0  0  0  0  0  0  0  0  0  0  0  0
    5.2224   -2.8876    0.0000 C   0  0  0  0  0  0  0  0  0  0  0  0
    3.7935   -2.8876    0.0000 C   0  0  0  0  0  0  0  0  0  0  0  0
    5.2224    4.5376    0.0000 C   0  0  0  0  0  0  0  0  0  0  0  0
    4.5080   -3.3001    0.0000 C   0  0  0  0  0  0  0  0  0  0  0  0
    2.3645   -2.0625    0.0000 C   0  0  0  0  0  0  0  0  0  0  0  0
    5.9370   -4.1251    0.0000 C   0  0  0  0  0  0  0  0  0  0  0  0
    1.6500   -1.6500    0.0000 C   0  0  0  0  0  0  0  0  0  0  0  0
    6.6515   -4.5376    0.0000 C   0  0  0  0  0  0  0  0  0  0  0  0
  1 13  2  0  0  0  0
  2 16  1  0  0  0  0
  2 24  1  0  0  0  0
  3 20  1  0  0  0  0
  3 25  1  0  0  0  0
  4 11  1  0  0  0  0
  4 12  1  0  0  0  0
  4 14  1  0  0  0  0
  5 13  1  0  0  0  0
  5 15  1  0  0  0  0
  6 14  2  0  0  0  0
  6 18  1  0  0  0  0
  7 14  1  0  0  0  0
  7 19  2  0  0  0  0
  8  9  1  0  0  0  0
  8 10  1  0  0  0  0
  8 13  1  0  0  0  0
  9 12  1  0  0  0  0
 10 11  1  0  0  0  0
 15 16  2  0  0  0  0
 15 17  1  0  0  0  0
 16 21  1  0  0  0  0
 17 20  2  0  0  0  0
 18 22  2  0  0  0  0
 19 22  1  0  0  0  0
 20 23  1  0  0  0  0
 21 23  2  0  0  0  0
 24 26  1  0  0  0  0
 25 27  1  0  0  0  0
M  END
> <From>
www.bindingDB.org

> <BindingDB Reactant_set_id>
108144

> <Ligand InChI>
InChI=1S/C20H26N4O3/c1-3-26-16-6-7-18(27-4-2)17(14-16)23-19(25)15-8-12-24(13-9-15)20-21-10-5-11-22-20/h5-7,10-11,14-15H,3-4,8-9,12-13H2,1-2H3,(H,23,25)

> <Ligand InChI Key>
PAVDKMHQNKASTR-UHFFFAOYSA-N

> <BindingDB MonomerID>
56825

> <BindingDB Ligand Name>
1-Pyrimidin-2-yl-piperidine-4-carboxylic acid (2,5-diethoxy-phenyl)-amide::MLS000033000::N-(2,5-diethoxyphenyl)-1-(2-pyrimidinyl)-4-piperidinecarboxamide::N-(2,5-diethoxyphenyl)-1-(2-pyrimidyl)isonipecotamide::N-(2,5-diethoxyphenyl)-1-pyrimidin-2-yl-piperidine-4-carboxamide::N-(2,5-diethoxyphenyl)-1-pyrimidin-2-ylpiperidine-4-carboxamide::SMR000006972::cid_649572

> <Target Name>
DNA repair protein RAD51 homolog 1

> <Target Source Organism According to Curator or DataSource>
Homo sapiens

> <Ki (nM)>


> <IC50 (nM)>
 42500

> <Kd (nM)>


> <EC50 (nM)>


> <kon (M-1-s-1)>


> <koff (s-1)>


> <pH>


> <Temp C>


> <Curation/DataSource>
PubChem

> <Article DOI>


> <BindingDB Entry DOI>
10.7270/Q2BV7F1T

> <PMID>


> <PubChem AID>
aid1435

> <Patent Number>


> <Authors>
PubChem, PC

> <Date of publication>
11/21/2008

> <Date in BindingDB>
6/8/2011

> <Institution>
PCMD

> <Link to Ligand in BindingDB>
http://www.bindingdb.org/bind/chemsearch/marvin/MolStructure.jsp?monomerid=56825

> <Link to Ligand-Target Pair in BindingDB>
http://www.bindingdb.org/jsp/dbsearch/PrimarySearch_ki.jsp?energyterm=kJ/mole&tag=pol&polymerid=4676&target=DNA+repair+protein+RAD51+homolog+1&column=ki&startPg=0&Increment=50&submit=Search

> <Link to Ligand-Target Pair in BindingDB>
http://www.bindingdb.org/jsp/dbsearch/PrimarySearch_ki.jsp?energyterm=kJ/mole&tag=r21&monomerid=56825&enzyme=DNA+repair+protein+RAD51+homolog+1&column=ki&startPg=0&Increment=50&submit=Search

> <Ligand HET ID in PDB>


> <PDB ID(s) for Ligand-Target Complex>


> <PubChem CID of Ligand>
649572

> <PubChem SID of Ligand>
252636781

> <ChEBI ID of Ligand>


> <ChEMBL ID of Ligand>


> <DrugBank ID of Ligand>


> <IUPHAR_GRAC ID of Ligand>


> <KEGG ID of Ligand>


> <ZINC ID of Ligand>
ZINC04400619

> <Number of Protein Chains in Target (bigger than 1 implies a multichain complex)>
1

> <BindingDB Target Chain Sequence>
MAMQMQLEANADTSVEEESFGPQPISRLEQCGINANDVKKLEEAGFHTVEAVAYAPKKELINIKGISEAKADKILAEAAKLVPMGFTTATEFHQRRSEIIQITTGSKELDKLLQGGIETGSITEMFGEFRTGKTQICHTLAVTCQLPIDRGGGEGKAMYIDTEGTFRPERLLAVAERYGLSGSDVLDNVAYARAFNTDHQTQLLYQASAMMVESRYALLIVDSATALYRTDYSGRGELSARQMHLARFLRMLLRLADEFGVAVVITNQVVAQVDGAAMFAADPKKPIGGNIIAHASTTRLYLRKGRGETRICKIYDSPCLPEAEAMFAINADGVGDAKD

> <PDB ID(s) of Target Chain>
1N0W,5JZC,5NP7,5NWL,8BQ2,8BR2,8BSC

> <UniProt (SwissProt) Recommended Name of Target Chain>
DNA repair protein RAD51 homolog 1

> <UniProt (SwissProt) Entry Name of Target Chain>
RAD51_HUMAN

> <UniProt (SwissProt) Primary ID of Target Chain>
Q06609

> <UniProt (SwissProt) Secondary ID(s) of Target Chain>
B0FXP0 B2R8T6 Q6FHX9 Q6ZNA8 Q9BV60

> <UniProt (SwissProt) Alternative ID(s) of Target Chain>


> <UniProt (TrEMBL) Submitted Name of Target Chain>


> <UniProt (TrEMBL) Entry Name of Target Chain>


> <UniProt (TrEMBL) Primary ID of Target Chain>


> <UniProt (TrEMBL) Secondary ID(s) of Target Chain>


> <UniProt (TrEMBL) Alternative ID(s) of Target Chain>


$$$$
651942
  Mrv0541 11191410422D          

 22 23  0  0  0  0            999 V2000
    4.9501    0.0000    0.0000 P   0  0  0  0  0  0  0  0  0  0  0  0
    2.8875    1.5395    0.0000 F   0  0  0  0  0  0  0  0  0  0  0  0
    2.8875   -0.1106    0.0000 F   0  0  0  0  0  0  0  0  0  0  0  0
    1.6500    1.4289    0.0000 F   0  0  0  0  0  0  0  0  0  0  0  0
    1.6500    0.0000    0.0000 F   0  0  0  0  0  0  0  0  0  0  0  0
    4.1250    0.0000    0.0000 O   0  0  0  0  0  0  0  0  0  0  0  0
    4.9501    2.4750    0.0000 O   0  0  0  0  0  0  0  0  0  0  0  0
    4.9501   -2.4750    0.0000 O   0  0  0  0  0  0  0  0  0  0  0  0
    5.7751    0.0000    0.0000 O   0  0  0  0  0  0  0  0  0  0  0  0
    4.9501   -0.8250    0.0000 N   0  0  0  0  0  0  0  0  0  0  0  0
    4.9501    0.8250    0.0000 N   0  0  0  0  0  0  0  0  0  0  0  0
    4.2356   -1.2375    0.0000 C   0  0  0  0  0  0  0  0  0  0  0  0
    5.6645    1.2375    0.0000 C   0  0  0  0  0  0  0  0  0  0  0  0
    4.2356    1.2375    0.0000 C   0  0  0  0  0  0  0  0  0  0  0  0
    5.6645   -1.2375    0.0000 C   0  0  0  0  0  0  0  0  0  0  0  0
    5.6645   -2.0625    0.0000 C   0  0  0  0  0  0  0  0  0  0  0  0
    4.2356   -2.0625    0.0000 C   0  0  0  0  0  0  0  0  0  0  0  0
    5.6645    2.0625    0.0000 C   0  0  0  0  0  0  0  0  0  0  0  0
    4.2356    2.0625    0.0000 C   0  0  0  0  0  0  0  0  0  0  0  0
    3.7125    0.7145    0.0000 C   0  0  0  0  0  0  0  0  0  0  0  0
    2.8875    0.7145    0.0000 C   0  0  0  0  0  0  0  0  0  0  0  0
    2.0625    0.7145    0.0000 C   0  0  0  0  0  0  0  0  0  0  0  0
  1  6  1  0  0  0  0
  1  9  2  0  0  0  0
  1 10  1  0  0  0  0
  1 11  1  0  0  0  0
  2 21  1  0  0  0  0
  3 21  1  0  0  0  0
  4 22  1  0  0  0  0
  5 22  1  0  0  0  0
  6 20  1  0  0  0  0
  7 18  1  0  0  0  0
  7 19  1  0  0  0  0
  8 16  1  0  0  0  0
  8 17  1  0  0  0  0
 10 12  1  0  0  0  0
 10 15  1  0  0  0  0
 11 13  1  0  0  0  0
 11 14  1  0  0  0  0
 12 17  1  0  0  0  0
 13 18  1  0  0  0  0
 14 19  1  0  0  0  0
 15 16  1  0  0  0  0
 20 21  1  0  0  0  0
 21 22  1  0  0  0  0
M  END
> <From>
www.bindingDB.org

> <BindingDB Reactant_set_id>
108145

> <Ligand InChI>
InChI=1S/C11H19F4N2O4P/c12-10(13)11(14,15)9-21-22(18,16-1-5-19-6-2-16)17-3-7-20-8-4-17/h10H,1-9H2

> <Ligand InChI Key>
GMQKBWDBHBHIKA-UHFFFAOYSA-N

> <BindingDB MonomerID>
56826

> <BindingDB Ligand Name>
4-[4-morpholinyl(2,2,3,3-tetrafluoropropoxy)phosphoryl]morpholine::4-[morpholin-4-yl(2,2,3,3-tetrafluoropropoxy)phosphoryl]morpholine::4-[morpholin-4-yl-[2,2,3,3-tetrakis(fluoranyl)propoxy]phosphoryl]morpholine::4-[morpholino(2,2,3,3-tetrafluoropropoxy)phosphoryl]morpholine::Di-morpholin-4-yl-phosphinic acid 2,2,3,3-tetrafluoro-propyl ester::MLS000072659::SMR000009357::cid_651942

> <Target Name>
DNA repair protein RAD51 homolog 1

> <Target Source Organism According to Curator or DataSource>
Homo sapiens

> <Ki (nM)>


> <IC50 (nM)>
 42500

> <Kd (nM)>


> <EC50 (nM)>


> <kon (M-1-s-1)>


> <koff (s-1)>


> <pH>


> <Temp C>


> <Curation/DataSource>
PubChem

> <Article DOI>


> <BindingDB Entry DOI>
10.7270/Q2BV7F1T

> <PMID>


> <PubChem AID>
aid1435

> <Patent Number>


> <Authors>
PubChem, PC

> <Date of publication>
11/21/2008

> <Date in BindingDB>
6/8/2011

> <Institution>
PCMD

> <Link to Ligand in BindingDB>
http://www.bindingdb.org/bind/chemsearch/marvin/MolStructure.jsp?monomerid=56826

> <Link to Ligand-Target Pair in BindingDB>
http://www.bindingdb.org/jsp/dbsearch/PrimarySearch_ki.jsp?energyterm=kJ/mole&tag=pol&polymerid=4676&target=DNA+repair+protein+RAD51+homolog+1&column=ki&startPg=0&Increment=50&submit=Search

> <Link to Ligand-Target Pair in BindingDB>
http://www.bindingdb.org/jsp/dbsearch/PrimarySearch_ki.jsp?energyterm=kJ/mole&tag=r21&monomerid=56826&enzyme=DNA+repair+protein+RAD51+homolog+1&column=ki&startPg=0&Increment=50&submit=Search

> <Ligand HET ID in PDB>


> <PDB ID(s) for Ligand-Target Complex>


> <PubChem CID of Ligand>
651942

> <PubChem SID of Ligand>
252636782

> <ChEBI ID of Ligand>


> <ChEMBL ID of Ligand>


> <DrugBank ID of Ligand>


> <IUPHAR_GRAC ID of Ligand>


> <KEGG ID of Ligand>


> <ZINC ID of Ligand>
ZINC00910869

> <Number of Protein Chains in Target (bigger than 1 implies a multichain complex)>
1

> <BindingDB Target Chain Sequence>
MAMQMQLEANADTSVEEESFGPQPISRLEQCGINANDVKKLEEAGFHTVEAVAYAPKKELINIKGISEAKADKILAEAAKLVPMGFTTATEFHQRRSEIIQITTGSKELDKLLQGGIETGSITEMFGEFRTGKTQICHTLAVTCQLPIDRGGGEGKAMYIDTEGTFRPERLLAVAERYGLSGSDVLDNVAYARAFNTDHQTQLLYQASAMMVESRYALLIVDSATALYRTDYSGRGELSARQMHLARFLRMLLRLADEFGVAVVITNQVVAQVDGAAMFAADPKKPIGGNIIAHASTTRLYLRKGRGETRICKIYDSPCLPEAEAMFAINADGVGDAKD

> <PDB ID(s) of Target Chain>
1N0W,5JZC,5NP7,5NWL,8BQ2,8BR2,8BSC

> <UniProt (SwissProt) Recommended Name of Target Chain>
DNA repair protein RAD51 homolog 1

> <UniProt (SwissProt) Entry Name of Target Chain>
RAD51_HUMAN

> <UniProt (SwissProt) Primary ID of Target Chain>
Q06609

> <UniProt (SwissProt) Secondary ID(s) of Target Chain>
B0FXP0 B2R8T6 Q6FHX9 Q6ZNA8 Q9BV60

> <UniProt (SwissProt) Alternative ID(s) of Target Chain>


> <UniProt (TrEMBL) Submitted Name of Target Chain>


> <UniProt (TrEMBL) Entry Name of Target Chain>


> <UniProt (TrEMBL) Primary ID of Target Chain>


> <UniProt (TrEMBL) Secondary ID(s) of Target Chain>


> <UniProt (TrEMBL) Alternative ID(s) of Target Chain>


$$$$
652520
  Mrv0541 11191410422D          

 17 18  0  0  0  0            999 V2000
    4.5550    1.7065    0.0000 S   0  0  0  0  0  0  0  0  0  0  0  0
    3.0790   -0.8410    0.0000 O   0  0  0  0  0  0  0  0  0  0  0  0
    3.7935    0.3965    0.0000 O   0  0  0  0  0  0  0  0  0  0  0  0
    5.2224    0.3965    0.0000 N   0  0  0  0  0  0  0  0  0  0  0  0
    5.8899    1.7065    0.0000 N   0  0  0  0  0  0  0  0  0  0  0  0
    4.5080   -0.8410    0.0000 C   0  0  0  0  0  0  0  0  0  0  0  0
    3.7935   -1.2535    0.0000 C   0  0  0  0  0  0  0  0  0  0  0  0
    5.2224   -1.2535    0.0000 C   0  0  0  0  0  0  0  0  0  0  0  0
    3.7935   -2.0786    0.0000 C   0  0  0  0  0  0  0  0  0  0  0  0
    4.5080   -0.0160    0.0000 C   0  0  0  0  0  0  0  0  0  0  0  0
    2.3645   -1.2535    0.0000 C   0  0  0  0  0  0  0  0  0  0  0  0
    5.2224   -2.0786    0.0000 C   0  0  0  0  0  0  0  0  0  0  0  0
    4.5080   -2.4911    0.0000 C   0  0  0  0  0  0  0  0  0  0  0  0
    1.6500   -0.8410    0.0000 C   0  0  0  0  0  0  0  0  0  0  0  0
    5.2224    1.2215    0.0000 C   0  0  0  0  0  0  0  0  0  0  0  0
    4.8099    2.4911    0.0000 C   0  0  0  0  0  0  0  0  0  0  0  0
    5.6350    2.4911    0.0000 C   0  0  0  0  0  0  0  0  0  0  0  0
  1 15  1  0  0  0  0
  1 16  1  0  0  0  0
  2  7  1  0  0  0  0
  2 11  1  0  0  0  0
  3 10  2  0  0  0  0
  4 10  1  0  0  0  0
  4 15  1  0  0  0  0
  5 15  2  0  0  0  0
  5 17  1  0  0  0  0
  6  7  2  0  0  0  0
  6  8  1  0  0  0  0
  6 10  1  0  0  0  0
  7  9  1  0  0  0  0
  8 12  2  0  0  0  0
  9 13  2  0  0  0  0
 11 14  1  0  0  0  0
 12 13  1  0  0  0  0
 16 17  2  0  0  0  0
M  END
> <From>
www.bindingDB.org

> <BindingDB Reactant_set_id>
108146

> <Ligand InChI>
InChI=1S/C12H12N2O2S/c1-2-16-10-6-4-3-5-9(10)11(15)14-12-13-7-8-17-12/h3-8H,2H2,1H3,(H,13,14,15)

> <Ligand InChI Key>
GRPQOZSPLANUIZ-UHFFFAOYSA-N

> <BindingDB MonomerID>
56827

> <BindingDB Ligand Name>
2-ethoxy-N-(1,3-thiazol-2-yl)benzamide::2-ethoxy-N-(2-thiazolyl)benzamide::2-ethoxy-N-thiazol-2-yl-benzamide::MLS000026765::SMR000009190::cid_652520

> <Target Name>
DNA repair protein RAD51 homolog 1

> <Target Source Organism According to Curator or DataSource>
Homo sapiens

> <Ki (nM)>


> <IC50 (nM)>
 85000

> <Kd (nM)>


> <EC50 (nM)>


> <kon (M-1-s-1)>


> <koff (s-1)>


> <pH>


> <Temp C>


> <Curation/DataSource>
PubChem

> <Article DOI>


> <BindingDB Entry DOI>
10.7270/Q2BV7F1T

> <PMID>


> <PubChem AID>
aid1435

> <Patent Number>


> <Authors>
PubChem, PC

> <Date of publication>
11/21/2008

> <Date in BindingDB>
6/8/2011

> <Institution>
PCMD

> <Link to Ligand in BindingDB>
http://www.bindingdb.org/bind/chemsearch/marvin/MolStructure.jsp?monomerid=56827

> <Link to Ligand-Target Pair in BindingDB>
http://www.bindingdb.org/jsp/dbsearch/PrimarySearch_ki.jsp?energyterm=kJ/mole&tag=pol&polymerid=4676&target=DNA+repair+protein+RAD51+homolog+1&column=ki&startPg=0&Increment=50&submit=Search

> <Link to Ligand-Target Pair in BindingDB>
http://www.bindingdb.org/jsp/dbsearch/PrimarySearch_ki.jsp?energyterm=kJ/mole&tag=r21&monomerid=56827&enzyme=DNA+repair+protein+RAD51+homolog+1&column=ki&startPg=0&Increment=50&submit=Search

> <Ligand HET ID in PDB>


> <PDB ID(s) for Ligand-Target Complex>


> <PubChem CID of Ligand>
652520

> <PubChem SID of Ligand>
252636783

> <ChEBI ID of Ligand>


> <ChEMBL ID of Ligand>


> <DrugBank ID of Ligand>


> <IUPHAR_GRAC ID of Ligand>


> <KEGG ID of Ligand>


> <ZINC ID of Ligand>
ZINC00128818

> <Number of Protein Chains in Target (bigger than 1 implies a multichain complex)>
1

> <BindingDB Target Chain Sequence>
MAMQMQLEANADTSVEEESFGPQPISRLEQCGINANDVKKLEEAGFHTVEAVAYAPKKELINIKGISEAKADKILAEAAKLVPMGFTTATEFHQRRSEIIQITTGSKELDKLLQGGIETGSITEMFGEFRTGKTQICHTLAVTCQLPIDRGGGEGKAMYIDTEGTFRPERLLAVAERYGLSGSDVLDNVAYARAFNTDHQTQLLYQASAMMVESRYALLIVDSATALYRTDYSGRGELSARQMHLARFLRMLLRLADEFGVAVVITNQVVAQVDGAAMFAADPKKPIGGNIIAHASTTRLYLRKGRGETRICKIYDSPCLPEAEAMFAINADGVGDAKD

> <PDB ID(s) of Target Chain>
1N0W,5JZC,5NP7,5NWL,8BQ2,8BR2,8BSC

> <UniProt (SwissProt) Recommended Name of Target Chain>
DNA repair protein RAD51 homolog 1

> <UniProt (SwissProt) Entry Name of Target Chain>
RAD51_HUMAN

> <UniProt (SwissProt) Primary ID of Target Chain>
Q06609

> <UniProt (SwissProt) Secondary ID(s) of Target Chain>
B0FXP0 B2R8T6 Q6FHX9 Q6ZNA8 Q9BV60

> <UniProt (SwissProt) Alternative ID(s) of Target Chain>


> <UniProt (TrEMBL) Submitted Name of Target Chain>


> <UniProt (TrEMBL) Entry Name of Target Chain>


> <UniProt (TrEMBL) Primary ID of Target Chain>


> <UniProt (TrEMBL) Secondary ID(s) of Target Chain>


> <UniProt (TrEMBL) Alternative ID(s) of Target Chain>


$$$$
653675
  Mrv0541 11191410422D          

 22 24  0  0  0  0            999 V2000
    4.2953   -0.9685    0.0000 Cl  0  0  0  0  0  0  0  0  0  0  0  0
    7.2637   -0.5560    0.0000 Cl  0  0  0  0  0  0  0  0  0  0  0  0
    6.2472    1.5386    0.0000 O   0  0  0  0  0  0  0  0  0  0  0  0
    3.8307   -0.1142    0.0000 O   0  0  0  0  0  0  0  0  0  0  0  0
    6.5022    0.7540    0.0000 N   0  0  0  0  0  0  0  0  0  0  0  0
    3.7696    1.0511    0.0000 N   0  0  0  0  0  0  0  0  0  0  0  0
    2.9849    0.7961    0.0000 N   0  0  0  0  0  0  0  0  0  0  0  0
    1.6500    0.7961    0.0000 N   0  0  0  0  0  0  0  0  0  0  0  0
    1.9050    0.0115    0.0000 N   0  0  0  0  0  0  0  0  0  0  0  0
    5.1673    0.7540    0.0000 C   0  0  0  0  0  0  0  0  0  0  0  0
    5.8347    0.2690    0.0000 C   0  0  0  0  0  0  0  0  0  0  0  0
    5.8347   -0.5560    0.0000 C   0  0  0  0  0  0  0  0  0  0  0  0
    5.4222    1.5386    0.0000 C   0  0  0  0  0  0  0  0  0  0  0  0
    4.3826    0.4990    0.0000 C   0  0  0  0  0  0  0  0  0  0  0  0
    5.1203   -0.9685    0.0000 C   0  0  0  0  0  0  0  0  0  0  0  0
    6.5492   -0.9685    0.0000 C   0  0  0  0  0  0  0  0  0  0  0  0
    4.9373    2.2060    0.0000 C   0  0  0  0  0  0  0  0  0  0  0  0
    5.1203   -1.7935    0.0000 C   0  0  0  0  0  0  0  0  0  0  0  0
    6.5492   -1.7935    0.0000 C   0  0  0  0  0  0  0  0  0  0  0  0
    5.8347   -2.2060    0.0000 C   0  0  0  0  0  0  0  0  0  0  0  0
    2.3175    1.2810    0.0000 C   0  0  0  0  0  0  0  0  0  0  0  0
    2.7300    0.0115    0.0000 C   0  0  0  0  0  0  0  0  0  0  0  0
  1 15  1  0  0  0  0
  2 16  1  0  0  0  0
  3  5  1  0  0  0  0
  3 13  1  0  0  0  0
  4 14  2  0  0  0  0
  5 11  2  0  0  0  0
  6  7  1  0  0  0  0
  6 14  1  0  0  0  0
  7 21  1  0  0  0  0
  7 22  1  0  0  0  0
  8  9  1  0  0  0  0
  8 21  2  0  0  0  0
  9 22  2  0  0  0  0
 10 11  1  0  0  0  0
 10 13  2  0  0  0  0
 10 14  1  0  0  0  0
 11 12  1  0  0  0  0
 12 15  2  0  0  0  0
 12 16  1  0  0  0  0
 13 17  1  0  0  0  0
 15 18  1  0  0  0  0
 16 19  2  0  0  0  0
 18 20  2  0  0  0  0
 19 20  1  0  0  0  0
M  END
> <From>
www.bindingDB.org

> <BindingDB Reactant_set_id>
108147

> <Ligand InChI>
InChI=1S/C13H9Cl2N5O2/c1-7-10(13(21)18-20-5-16-17-6-20)12(19-22-7)11-8(14)3-2-4-9(11)15/h2-6H,1H3,(H,18,21)

> <Ligand InChI Key>
AGMQKWUVLYPZHJ-UHFFFAOYSA-N

> <BindingDB MonomerID>
56828

> <BindingDB Ligand Name>
3-(2,6-Dichloro-phenyl)-5-methyl-isoxazole-4-carboxylic acid [1,2,4]triazol-4-ylamide::3-(2,6-dichlorophenyl)-5-methyl-N-(1,2,4-triazol-4-yl)-1,2-oxazole-4-carboxamide::3-(2,6-dichlorophenyl)-5-methyl-N-(1,2,4-triazol-4-yl)-4-isoxazolecarboxamide::3-(2,6-dichlorophenyl)-5-methyl-N-(1,2,4-triazol-4-yl)isoxazole-4-carboxamide::3-[2,6-bis(chloranyl)phenyl]-5-methyl-N-(1,2,4-triazol-4-yl)-1,2-oxazole-4-carboxamide::MLS000033400::SMR000009301::cid_653675

> <Target Name>
DNA repair protein RAD51 homolog 1

> <Target Source Organism According to Curator or DataSource>
Homo sapiens

> <Ki (nM)>


> <IC50 (nM)>
 85000

> <Kd (nM)>


> <EC50 (nM)>


> <kon (M-1-s-1)>


> <koff (s-1)>


> <pH>


> <Temp C>


> <Curation/DataSource>
PubChem

> <Article DOI>


> <BindingDB Entry DOI>
10.7270/Q2BV7F1T

> <PMID>


> <PubChem AID>
aid1435

> <Patent Number>


> <Authors>
PubChem, PC

> <Date of publication>
11/21/2008

> <Date in BindingDB>
6/8/2011

> <Institution>
PCMD

> <Link to Ligand in BindingDB>
http://www.bindingdb.org/bind/chemsearch/marvin/MolStructure.jsp?monomerid=56828

> <Link to Ligand-Target Pair in BindingDB>
http://www.bindingdb.org/jsp/dbsearch/PrimarySearch_ki.jsp?energyterm=kJ/mole&tag=pol&polymerid=4676&target=DNA+repair+protein+RAD51+homolog+1&column=ki&startPg=0&Increment=50&submit=Search

> <Link to Ligand-Target Pair in BindingDB>
http://www.bindingdb.org/jsp/dbsearch/PrimarySearch_ki.jsp?energyterm=kJ/mole&tag=r21&monomerid=56828&enzyme=DNA+repair+protein+RAD51+homolog+1&column=ki&startPg=0&Increment=50&submit=Search

> <Ligand HET ID in PDB>


> <PDB ID(s) for Ligand-Target Complex>


> <PubChem CID of Ligand>
653675

> <PubChem SID of Ligand>
252636784

> <ChEBI ID of Ligand>


> <ChEMBL ID of Ligand>


> <DrugBank ID of Ligand>


> <IUPHAR_GRAC ID of Ligand>


> <KEGG ID of Ligand>


> <ZINC ID of Ligand>
ZINC00304234

> <Number of Protein Chains in Target (bigger than 1 implies a multichain complex)>
1

> <BindingDB Target Chain Sequence>
MAMQMQLEANADTSVEEESFGPQPISRLEQCGINANDVKKLEEAGFHTVEAVAYAPKKELINIKGISEAKADKILAEAAKLVPMGFTTATEFHQRRSEIIQITTGSKELDKLLQGGIETGSITEMFGEFRTGKTQICHTLAVTCQLPIDRGGGEGKAMYIDTEGTFRPERLLAVAERYGLSGSDVLDNVAYARAFNTDHQTQLLYQASAMMVESRYALLIVDSATALYRTDYSGRGELSARQMHLARFLRMLLRLADEFGVAVVITNQVVAQVDGAAMFAADPKKPIGGNIIAHASTTRLYLRKGRGETRICKIYDSPCLPEAEAMFAINADGVGDAKD

> <PDB ID(s) of Target Chain>
1N0W,5JZC,5NP7,5NWL,8BQ2,8BR2,8BSC

> <UniProt (SwissProt) Recommended Name of Target Chain>
DNA repair protein RAD51 homolog 1

> <UniProt (SwissProt) Entry Name of Target Chain>
RAD51_HUMAN

> <UniProt (SwissProt) Primary ID of Target Chain>
Q06609

> <UniProt (SwissProt) Secondary ID(s) of Target Chain>
B0FXP0 B2R8T6 Q6FHX9 Q6ZNA8 Q9BV60

> <UniProt (SwissProt) Alternative ID(s) of Target Chain>


> <UniProt (TrEMBL) Submitted Name of Target Chain>


> <UniProt (TrEMBL) Entry Name of Target Chain>


> <UniProt (TrEMBL) Primary ID of Target Chain>


> <UniProt (TrEMBL) Secondary ID(s) of Target Chain>


> <UniProt (TrEMBL) Alternative ID(s) of Target Chain>


$$$$
653933
  Mrv0541 11191410422D          

 22 24  0  0  0  0            999 V2000
    1.6500    0.2190    0.0000 Cl  0  0  0  0  0  0  0  0  0  0  0  0
    4.5543    0.2190    0.0000 O   0  0  0  0  0  0  0  0  0  0  0  0
    2.2047   -1.4880    0.0000 O   0  0  0  0  0  0  0  0  0  0  0  0
    3.1022    1.2740    0.0000 N   0  0  0  0  0  0  0  0  0  0  0  0
    3.1022    2.9240    0.0000 N   0  0  0  0  0  0  0  0  0  0  0  0
    3.5147   -0.8206    0.0000 N   0  0  0  0  0  0  0  0  0  0  0  0
    2.3876    1.6865    0.0000 C   0  0  0  0  0  0  0  0  0  0  0  0
    3.8166    1.6865    0.0000 C   0  0  0  0  0  0  0  0  0  0  0  0
    3.8166    2.5115    0.0000 C   0  0  0  0  0  0  0  0  0  0  0  0
    2.3876    2.5115    0.0000 C   0  0  0  0  0  0  0  0  0  0  0  0
    3.1022    0.4490    0.0000 C   0  0  0  0  0  0  0  0  0  0  0  0
    3.7696   -0.0359    0.0000 C   0  0  0  0  0  0  0  0  0  0  0  0
    3.1022    3.7491    0.0000 C   0  0  0  0  0  0  0  0  0  0  0  0
    2.4347   -0.0359    0.0000 C   0  0  0  0  0  0  0  0  0  0  0  0
    2.6896   -0.8206    0.0000 C   0  0  0  0  0  0  0  0  0  0  0  0
    3.9996   -1.4880    0.0000 C   0  0  0  0  0  0  0  0  0  0  0  0
    3.6640   -2.2417    0.0000 C   0  0  0  0  0  0  0  0  0  0  0  0
    2.8435   -2.3280    0.0000 C   0  0  0  0  0  0  0  0  0  0  0  0
    4.1489   -2.9092    0.0000 C   0  0  0  0  0  0  0  0  0  0  0  0
    2.5080   -3.0816    0.0000 C   0  0  0  0  0  0  0  0  0  0  0  0
    3.8134   -3.6628    0.0000 C   0  0  0  0  0  0  0  0  0  0  0  0
    2.9928   -3.7491    0.0000 C   0  0  0  0  0  0  0  0  0  0  0  0
  1 14  1  0  0  0  0
  2 12  2  0  0  0  0
  3 15  2  0  0  0  0
  4  7  1  0  0  0  0
  4  8  1  0  0  0  0
  4 11  1  0  0  0  0
  5  9  1  0  0  0  0
  5 10  1  0  0  0  0
  5 13  1  0  0  0  0
  6 12  1  0  0  0  0
  6 15  1  0  0  0  0
  6 16  1  0  0  0  0
  7 10  1  0  0  0  0
  8  9  1  0  0  0  0
 11 12  1  0  0  0  0
 11 14  2  0  0  0  0
 14 15  1  0  0  0  0
 16 17  1  0  0  0  0
 17 18  2  0  0  0  0
 17 19  1  0  0  0  0
 18 20  1  0  0  0  0
 19 21  2  0  0  0  0
 20 22  2  0  0  0  0
 21 22  1  0  0  0  0
M  END
> <From>
www.bindingDB.org

> <BindingDB Reactant_set_id>
108148

> <Ligand InChI>
InChI=1S/C16H18ClN3O2/c1-18-7-9-19(10-8-18)14-13(17)15(21)20(16(14)22)11-12-5-3-2-4-6-12/h2-6H,7-11H2,1H3

> <Ligand InChI Key>
UEQSRFKBWLOPFU-UHFFFAOYSA-N

> <BindingDB MonomerID>
56829

> <BindingDB Ligand Name>
1-Benzyl-3-chloro-4-(4-methyl-piperazin-1-yl)-pyrrole-2,5-dione::1-benzyl-3-chloro-4-(4-methylpiperazin-1-yl)pyrrole-2,5-dione::1-benzyl-3-chloro-4-(4-methylpiperazino)-3-pyrroline-2,5-quinone::3-chloranyl-4-(4-methylpiperazin-1-yl)-1-(phenylmethyl)pyrrole-2,5-dione::3-chloro-4-(4-methyl-1-piperazinyl)-1-(phenylmethyl)pyrrole-2,5-dione::MLS000030834::SMR000010760::cid_653933

> <Target Name>
DNA repair protein RAD51 homolog 1

> <Target Source Organism According to Curator or DataSource>
Homo sapiens

> <Ki (nM)>


> <IC50 (nM)>
 85000

> <Kd (nM)>


> <EC50 (nM)>


> <kon (M-1-s-1)>


> <koff (s-1)>


> <pH>


> <Temp C>


> <Curation/DataSource>
PubChem

> <Article DOI>


> <BindingDB Entry DOI>
10.7270/Q2BV7F1T

> <PMID>


> <PubChem AID>
aid1435

> <Patent Number>


> <Authors>
PubChem, PC

> <Date of publication>
11/21/2008

> <Date in BindingDB>
6/8/2011

> <Institution>
PCMD

> <Link to Ligand in BindingDB>
http://www.bindingdb.org/bind/chemsearch/marvin/MolStructure.jsp?monomerid=56829

> <Link to Ligand-Target Pair in BindingDB>
http://www.bindingdb.org/jsp/dbsearch/PrimarySearch_ki.jsp?energyterm=kJ/mole&tag=pol&polymerid=4676&target=DNA+repair+protein+RAD51+homolog+1&column=ki&startPg=0&Increment=50&submit=Search

> <Link to Ligand-Target Pair in BindingDB>
http://www.bindingdb.org/jsp/dbsearch/PrimarySearch_ki.jsp?energyterm=kJ/mole&tag=r21&monomerid=56829&enzyme=DNA+repair+protein+RAD51+homolog+1&column=ki&startPg=0&Increment=50&submit=Search

> <Ligand HET ID in PDB>


> <PDB ID(s) for Ligand-Target Complex>


> <PubChem CID of Ligand>
653933

> <PubChem SID of Ligand>
252636785

> <ChEBI ID of Ligand>


> <ChEMBL ID of Ligand>


> <DrugBank ID of Ligand>


> <IUPHAR_GRAC ID of Ligand>


> <KEGG ID of Ligand>


> <ZINC ID of Ligand>
ZINC19789816

> <Number of Protein Chains in Target (bigger than 1 implies a multichain complex)>
1

> <BindingDB Target Chain Sequence>
MAMQMQLEANADTSVEEESFGPQPISRLEQCGINANDVKKLEEAGFHTVEAVAYAPKKELINIKGISEAKADKILAEAAKLVPMGFTTATEFHQRRSEIIQITTGSKELDKLLQGGIETGSITEMFGEFRTGKTQICHTLAVTCQLPIDRGGGEGKAMYIDTEGTFRPERLLAVAERYGLSGSDVLDNVAYARAFNTDHQTQLLYQASAMMVESRYALLIVDSATALYRTDYSGRGELSARQMHLARFLRMLLRLADEFGVAVVITNQVVAQVDGAAMFAADPKKPIGGNIIAHASTTRLYLRKGRGETRICKIYDSPCLPEAEAMFAINADGVGDAKD

> <PDB ID(s) of Target Chain>
1N0W,5JZC,5NP7,5NWL,8BQ2,8BR2,8BSC

> <UniProt (SwissProt) Recommended Name of Target Chain>
DNA repair protein RAD51 homolog 1

> <UniProt (SwissProt) Entry Name of Target Chain>
RAD51_HUMAN

> <UniProt (SwissProt) Primary ID of Target Chain>
Q06609

> <UniProt (SwissProt) Secondary ID(s) of Target Chain>
B0FXP0 B2R8T6 Q6FHX9 Q6ZNA8 Q9BV60

> <UniProt (SwissProt) Alternative ID(s) of Target Chain>


> <UniProt (TrEMBL) Submitted Name of Target Chain>


> <UniProt (TrEMBL) Entry Name of Target Chain>


> <UniProt (TrEMBL) Primary ID of Target Chain>


> <UniProt (TrEMBL) Secondary ID(s) of Target Chain>


> <UniProt (TrEMBL) Alternative ID(s) of Target Chain>


$$$$
655266
  Mrv0541 11191410422D          

 24 26  0  0  0  0            999 V2000
    5.9370    1.1592    0.0000 S   0  0  0  0  0  0  0  0  0  0  0  0
    5.2224   -2.5534    0.0000 O   0  0  0  0  0  0  0  0  0  0  0  0
    5.5245    1.8736    0.0000 O   0  0  0  0  0  0  0  0  0  0  0  0
    6.3495    0.4447    0.0000 O   0  0  0  0  0  0  0  0  0  0  0  0
    3.0790   -1.3159    0.0000 N   0  0  0  0  0  0  0  0  0  0  0  0
    5.2224    0.7466    0.0000 N   0  0  0  0  0  0  0  0  0  0  0  0
    3.0790   -0.4909    0.0000 C   0  0  0  0  0  0  0  0  0  0  0  0
    2.3645   -1.7284    0.0000 C   0  0  0  0  0  0  0  0  0  0  0  0
    2.3645   -0.0784    0.0000 C   0  0  0  0  0  0  0  0  0  0  0  0
    1.6500   -1.3159    0.0000 C   0  0  0  0  0  0  0  0  0  0  0  0
    1.6500   -0.4909    0.0000 C   0  0  0  0  0  0  0  0  0  0  0  0
    3.7935   -1.7284    0.0000 C   0  0  0  0  0  0  0  0  0  0  0  0
    4.5080   -1.3159    0.0000 C   0  0  0  0  0  0  0  0  0  0  0  0
    4.5080   -0.4909    0.0000 C   0  0  0  0  0  0  0  0  0  0  0  0
    5.2224   -1.7284    0.0000 C   0  0  0  0  0  0  0  0  0  0  0  0
    5.2224   -0.0784    0.0000 C   0  0  0  0  0  0  0  0  0  0  0  0
    5.9370   -1.3159    0.0000 C   0  0  0  0  0  0  0  0  0  0  0  0
    5.9370   -0.4909    0.0000 C   0  0  0  0  0  0  0  0  0  0  0  0
    6.6515    1.5717    0.0000 C   0  0  0  0  0  0  0  0  0  0  0  0
    7.3659    1.1592    0.0000 C   0  0  0  0  0  0  0  0  0  0  0  0
    6.6515    2.3967    0.0000 C   0  0  0  0  0  0  0  0  0  0  0  0
    8.0804    1.5717    0.0000 C   0  0  0  0  0  0  0  0  0  0  0  0
    7.3659    2.8092    0.0000 C   0  0  0  0  0  0  0  0  0  0  0  0
    8.0804    2.3967    0.0000 C   0  0  0  0  0  0  0  0  0  0  0  0
  1  3  2  0  0  0  0
  1  4  2  0  0  0  0
  1  6  1  0  0  0  0
  1 19  1  0  0  0  0
  2 15  1  0  0  0  0
  5  7  1  0  0  0  0
  5  8  1  0  0  0  0
  5 12  1  0  0  0  0
  6 16  1  0  0  0  0
  7  9  1  0  0  0  0
  8 10  1  0  0  0  0
  9 11  1  0  0  0  0
 10 11  1  0  0  0  0
 12 13  1  0  0  0  0
 13 14  2  0  0  0  0
 13 15  1  0  0  0  0
 14 16  1  0  0  0  0
 15 17  2  0  0  0  0
 16 18  2  0  0  0  0
 17 18  1  0  0  0  0
 19 20  2  0  0  0  0
 19 21  1  0  0  0  0
 20 22  1  0  0  0  0
 21 23  2  0  0  0  0
 22 24  2  0  0  0  0
 23 24  1  0  0  0  0
M  END
> <From>
www.bindingDB.org

> <BindingDB Reactant_set_id>
108149

> <Ligand InChI>
InChI=1S/C18H22N2O3S/c21-18-10-9-16(13-15(18)14-20-11-5-2-6-12-20)19-24(22,23)17-7-3-1-4-8-17/h1,3-4,7-10,13,19,21H,2,5-6,11-12,14H2

> <Ligand InChI Key>
YSDWBGNWIWSVKO-UHFFFAOYSA-N

> <BindingDB MonomerID>
56830

> <BindingDB Ligand Name>
MLS000034660::N-(4-Hydroxy-3-piperidin-1-ylmethyl-phenyl)-benzenesulfonamide::N-[4-hydroxy-3-(1-piperidinylmethyl)phenyl]benzenesulfonamide::N-[4-hydroxy-3-(piperidin-1-ylmethyl)phenyl]benzenesulfonamide::N-[4-hydroxy-3-(piperidinomethyl)phenyl]benzenesulfonamide::N-[4-oxidanyl-3-(piperidin-1-ylmethyl)phenyl]benzenesulfonamide::SMR000012957::cid_655266

> <Target Name>
DNA repair protein RAD51 homolog 1

> <Target Source Organism According to Curator or DataSource>
Homo sapiens

> <Ki (nM)>


> <IC50 (nM)>
 85000

> <Kd (nM)>


> <EC50 (nM)>


> <kon (M-1-s-1)>


> <koff (s-1)>


> <pH>


> <Temp C>


> <Curation/DataSource>
PubChem

> <Article DOI>


> <BindingDB Entry DOI>
10.7270/Q2BV7F1T

> <PMID>


> <PubChem AID>
aid1435

> <Patent Number>


> <Authors>
PubChem, PC

> <Date of publication>
11/21/2008

> <Date in BindingDB>
6/8/2011

> <Institution>
PCMD

> <Link to Ligand in BindingDB>
http://www.bindingdb.org/bind/chemsearch/marvin/MolStructure.jsp?monomerid=56830

> <Link to Ligand-Target Pair in BindingDB>
http://www.bindingdb.org/jsp/dbsearch/PrimarySearch_ki.jsp?energyterm=kJ/mole&tag=pol&polymerid=4676&target=DNA+repair+protein+RAD51+homolog+1&column=ki&startPg=0&Increment=50&submit=Search

> <Link to Ligand-Target Pair in BindingDB>
http://www.bindingdb.org/jsp/dbsearch/PrimarySearch_ki.jsp?energyterm=kJ/mole&tag=r21&monomerid=56830&enzyme=DNA+repair+protein+RAD51+homolog+1&column=ki&startPg=0&Increment=50&submit=Search

> <Ligand HET ID in PDB>


> <PDB ID(s) for Ligand-Target Complex>


> <PubChem CID of Ligand>
655266

> <PubChem SID of Ligand>
252636786

> <ChEBI ID of Ligand>


> <ChEMBL ID of Ligand>


> <DrugBank ID of Ligand>


> <IUPHAR_GRAC ID of Ligand>


> <KEGG ID of Ligand>


> <ZINC ID of Ligand>
ZINC00114704

> <Number of Protein Chains in Target (bigger than 1 implies a multichain complex)>
1

> <BindingDB Target Chain Sequence>
MAMQMQLEANADTSVEEESFGPQPISRLEQCGINANDVKKLEEAGFHTVEAVAYAPKKELINIKGISEAKADKILAEAAKLVPMGFTTATEFHQRRSEIIQITTGSKELDKLLQGGIETGSITEMFGEFRTGKTQICHTLAVTCQLPIDRGGGEGKAMYIDTEGTFRPERLLAVAERYGLSGSDVLDNVAYARAFNTDHQTQLLYQASAMMVESRYALLIVDSATALYRTDYSGRGELSARQMHLARFLRMLLRLADEFGVAVVITNQVVAQVDGAAMFAADPKKPIGGNIIAHASTTRLYLRKGRGETRICKIYDSPCLPEAEAMFAINADGVGDAKD

> <PDB ID(s) of Target Chain>
1N0W,5JZC,5NP7,5NWL,8BQ2,8BR2,8BSC

> <UniProt (SwissProt) Recommended Name of Target Chain>
DNA repair protein RAD51 homolog 1

> <UniProt (SwissProt) Entry Name of Target Chain>
RAD51_HUMAN

> <UniProt (SwissProt) Primary ID of Target Chain>
Q06609

> <UniProt (SwissProt) Secondary ID(s) of Target Chain>
B0FXP0 B2R8T6 Q6FHX9 Q6ZNA8 Q9BV60

> <UniProt (SwissProt) Alternative ID(s) of Target Chain>


> <UniProt (TrEMBL) Submitted Name of Target Chain>


> <UniProt (TrEMBL) Entry Name of Target Chain>


> <UniProt (TrEMBL) Primary ID of Target Chain>


> <UniProt (TrEMBL) Secondary ID(s) of Target Chain>


> <UniProt (TrEMBL) Alternative ID(s) of Target Chain>


$$$$
 
  Mrv0541 11231401232D          

 35 37  0  0  0  0            999 V2000
   10.8107  -10.2518    0.0000 O   0  0  0  0  0  0  0  0  0  0  0  0
   14.4842  -11.9233    0.0000 O   0  0  0  0  0  0  0  0  0  0  0  0
    6.8552  -11.0596    0.0000 O   0  0  0  0  0  0  0  0  0  0  0  0
   16.4757  -15.4395    0.0000 O   0  0  0  0  0  0  0  0  0  0  0  0
   12.4337  -10.8277    0.0000 N   0  0  0  0  0  0  0  0  0  0  0  0
    8.5051  -10.5709    0.0000 N   0  0  0  0  0  0  0  0  0  0  0  0
   10.3691  -11.6095    0.0000 N   0  0  0  0  0  0  0  0  0  0  0  0
   13.3300  -12.7627    0.0000 N   0  0  0  0  0  0  0  0  0  0  0  0
   15.4609  -13.3435    0.0000 N   0  0  0  0  0  0  0  0  0  0  0  0
    7.2926  -12.4173    0.0000 N   0  0  0  0  0  0  0  0  0  0  0  0
   15.0461  -15.4395    0.0000 N   0  0  0  0  0  0  0  0  0  0  0  0
    5.3834  -14.5404    0.0000 N   0  0  0  0  0  0  0  0  0  0  0  0
   11.7653  -11.3133    0.0000 C   0  0  0  0  0  0  0  0  0  0  0  0
    9.5841  -11.3559    0.0000 C   0  0  0  0  0  0  0  0  0  0  0  0
   12.8444  -12.0982    0.0000 C   0  0  0  0  0  0  0  0  0  0  0  0
    8.2514  -11.3559    0.0000 C   0  0  0  0  0  0  0  0  0  0  0  0
   12.0231  -12.0982    0.0000 C   0  0  0  0  0  0  0  0  0  0  0  0
   13.1022  -11.3133    0.0000 C   0  0  0  0  0  0  0  0  0  0  0  0
    8.9199  -11.8414    0.0000 C   0  0  0  0  0  0  0  0  0  0  0  0
    9.3305  -10.5709    0.0000 C   0  0  0  0  0  0  0  0  0  0  0  0
   10.9803  -11.0596    0.0000 C   0  0  0  0  0  0  0  0  0  0  0  0
   14.6355  -13.3435    0.0000 C   0  0  0  0  0  0  0  0  0  0  0  0
   14.1498  -12.6792    0.0000 C   0  0  0  0  0  0  0  0  0  0  0  0
    7.4663  -11.6095    0.0000 C   0  0  0  0  0  0  0  0  0  0  0  0
   12.4337  -10.0024    0.0000 C   0  0  0  0  0  0  0  0  0  0  0  0
    8.0195   -9.9024    0.0000 C   0  0  0  0  0  0  0  0  0  0  0  0
   14.3818  -14.1285    0.0000 C   0  0  0  0  0  0  0  0  0  0  0  0
   15.0461  -14.6141    0.0000 C   0  0  0  0  0  0  0  0  0  0  0  0
   15.7145  -14.1285    0.0000 C   0  0  0  0  0  0  0  0  0  0  0  0
    6.5119  -12.6710    0.0000 C   0  0  0  0  0  0  0  0  0  0  0  0
   15.9464  -12.6792    0.0000 C   0  0  0  0  0  0  0  0  0  0  0  0
    6.3381  -13.4788    0.0000 C   0  0  0  0  0  0  0  0  0  0  0  0
    5.5530  -13.7325    0.0000 C   0  0  0  0  0  0  0  0  0  0  0  0
   15.7630  -15.8501    0.0000 C   0  0  0  0  0  0  0  0  0  0  0  0
    4.9398  -13.1806    0.0000 N   0  0  0  0  0  0  0  0  0  0  0  0
  1 21  2  0  0  0  0
  2 23  2  0  0  0  0
  3 24  2  0  0  0  0
  4 34  2  0  0  0  0
  5 13  1  0  0  0  0
  5 18  1  0  0  0  0
  5 25  1  0  0  0  0
  6 16  1  0  0  0  0
  6 20  1  0  0  0  0
  6 26  1  0  0  0  0
  7 14  1  0  0  0  0
  7 21  1  0  0  0  0
  8 15  1  0  0  0  0
  8 23  1  0  0  0  0
  9 22  1  0  0  0  0
  9 29  1  0  0  0  0
  9 31  1  0  0  0  0
 10 24  1  0  0  0  0
 10 30  1  0  0  0  0
 11 28  1  0  0  0  0
 11 34  1  0  0  0  0
 12 33  1  0  0  0  0
 35 33  2  0  0  0  0
 13 17  2  0  0  0  0
 13 21  1  0  0  0  0
 14 19  1  0  0  0  0
 14 20  2  0  0  0  0
 15 17  1  0  0  0  0
 15 18  2  0  0  0  0
 16 19  2  0  0  0  0
 16 24  1  0  0  0  0
 22 23  1  0  0  0  0
 22 27  2  0  0  0  0
 27 28  1  0  0  0  0
 28 29  2  0  0  0  0
 30 32  1  0  0  0  0
 32 33  1  0  0  0  0
M  END
> <From>
www.bindingDB.org

> <BindingDB Reactant_set_id>
108150

> <Ligand InChI>
InChI=1S/C22H27N9O4/c1-29-9-13(26-12-32)6-17(29)21(34)28-15-8-18(31(3)11-15)22(35)27-14-7-16(30(2)10-14)20(33)25-5-4-19(23)24/h6-12H,4-5H2,1-3H3,(H3,23,24)(H,25,33)(H,26,32)(H,27,35)(H,28,34)

> <Ligand InChI Key>
UPBAOYRENQEPJO-UHFFFAOYSA-N

> <BindingDB MonomerID>
50055659

> <BindingDB Ligand Name>
2N-(3,3-aminoiminopropyl)-4-[4-(4-formamido-1-methyl-1H-2-pyrrolylcarboxamido)-1-methyl-1H-2-pyrrolylcarboxamido]-1-methyl-1H-2-pyrrolecarboxamide::2N-[5-(3-amino-3-iminopropylcarbamoyl)-1-methyl-1H-3-pyrrolyl]-4-(4-formamido-1-methyl-1H-2-pyrrolylcarboxamido)-1-methyl-1H-2-pyrrolecarboxamide::2N-[5-(3-amino-3-iminopropylcarbamoyl)-1-methyl-1H-3-pyrrolyl]-4-(4-formamido-1-methyl-1H-2-pyrrolylcarboxamido)-1-methyl-1H-2-pyrrolecarboxamide(Distamycin)::2N-[5-(3-amino-3-iminopropylcarbamoyl)-1-methyl-1H-3-pyrrolyl]-4-(4-formamido-1-methyl-1H-2-pyrrolylcarboxamido)-1-methyl-1H-2-pyrrolecarboxamide(distamycin A)::4N-[5-(3-amino-3-iminopropylcarbamoyl)-1-methyl-1H-2-pyrrolyl]-2-(4-formamido-1-methyl-1H-2-pyrrolylcarboxamido)-1-methyl-1H-4-pyrrolecarboxamide::5N-[5-(3-amino-3-iminopropylcarbamoyl)-1-methyl-2,3-dihydro-1H-3-pyrrolyl]-3-(4-formamido-1-methyl-1H-2-pyrrolylcarboxamido)-1-methyl-2,3-dihydro-1H-5-pyrrolecarboxamide::CHEMBL101290::CHEMBL11252::DISTAMYCIN::DISTAMYCIN HYDROCHLORIDE::cid_6602691

> <Target Name>
DNA repair protein RAD51 homolog 1

> <Target Source Organism According to Curator or DataSource>
Homo sapiens

> <Ki (nM)>


> <IC50 (nM)>
 6372

> <Kd (nM)>


> <EC50 (nM)>


> <kon (M-1-s-1)>


> <koff (s-1)>


> <pH>


> <Temp C>


> <Curation/DataSource>
PubChem

> <Article DOI>


> <BindingDB Entry DOI>
10.7270/Q2BV7F1T

> <PMID>


> <PubChem AID>
aid1435

> <Patent Number>


> <Authors>
PubChem, PC

> <Date of publication>
11/21/2008

> <Date in BindingDB>
6/8/2011

> <Institution>
PCMD

> <Link to Ligand in BindingDB>
http://www.bindingdb.org/bind/chemsearch/marvin/MolStructure.jsp?monomerid=50055659

> <Link to Ligand-Target Pair in BindingDB>
http://www.bindingdb.org/jsp/dbsearch/PrimarySearch_ki.jsp?energyterm=kJ/mole&tag=pol&polymerid=4676&target=DNA+repair+protein+RAD51+homolog+1&column=ki&startPg=0&Increment=50&submit=Search

> <Link to Ligand-Target Pair in BindingDB>
http://www.bindingdb.org/jsp/dbsearch/PrimarySearch_ki.jsp?energyterm=kJ/mole&tag=r21&monomerid=50055659&enzyme=DNA+repair+protein+RAD51+homolog+1&column=ki&startPg=0&Increment=50&submit=Search

> <Ligand HET ID in PDB>
DMY

> <PDB ID(s) for Ligand-Target Complex>
217D,1JTL,159D,1K2Z,304D,1JUX,305D,306D,2DND,2JT7,267D,378D,216D

> <PubChem CID of Ligand>
3115

> <PubChem SID of Ligand>
103952142

> <ChEBI ID of Ligand>


> <ChEMBL ID of Ligand>
CHEMBL101290
CHEMBL11252

> <DrugBank ID of Ligand>


> <IUPHAR_GRAC ID of Ligand>


> <KEGG ID of Ligand>
C06049

> <ZINC ID of Ligand>
ZINC03872327

> <Number of Protein Chains in Target (bigger than 1 implies a multichain complex)>
1

> <BindingDB Target Chain Sequence>
MAMQMQLEANADTSVEEESFGPQPISRLEQCGINANDVKKLEEAGFHTVEAVAYAPKKELINIKGISEAKADKILAEAAKLVPMGFTTATEFHQRRSEIIQITTGSKELDKLLQGGIETGSITEMFGEFRTGKTQICHTLAVTCQLPIDRGGGEGKAMYIDTEGTFRPERLLAVAERYGLSGSDVLDNVAYARAFNTDHQTQLLYQASAMMVESRYALLIVDSATALYRTDYSGRGELSARQMHLARFLRMLLRLADEFGVAVVITNQVVAQVDGAAMFAADPKKPIGGNIIAHASTTRLYLRKGRGETRICKIYDSPCLPEAEAMFAINADGVGDAKD

> <PDB ID(s) of Target Chain>
1N0W,5JZC,5NP7,5NWL,8BQ2,8BR2,8BSC

> <UniProt (SwissProt) Recommended Name of Target Chain>
DNA repair protein RAD51 homolog 1

> <UniProt (SwissProt) Entry Name of Target Chain>
RAD51_HUMAN

> <UniProt (SwissProt) Primary ID of Target Chain>
Q06609

> <UniProt (SwissProt) Secondary ID(s) of Target Chain>
B0FXP0 B2R8T6 Q6FHX9 Q6ZNA8 Q9BV60

> <UniProt (SwissProt) Alternative ID(s) of Target Chain>


> <UniProt (TrEMBL) Submitted Name of Target Chain>


> <UniProt (TrEMBL) Entry Name of Target Chain>


> <UniProt (TrEMBL) Primary ID of Target Chain>


> <UniProt (TrEMBL) Secondary ID(s) of Target Chain>


> <UniProt (TrEMBL) Alternative ID(s) of Target Chain>


$$$$
657428
  Mrv0541 11191410422D          

 19 19  0  0  0  0            999 V2000
    4.3808    1.0160    0.0000 O   0  0  0  0  0  0  0  0  0  0  0  0
    3.1433    0.3015    0.0000 O   0  0  0  0  0  0  0  0  0  0  0  0
    5.6184    1.7306    0.0000 O   0  0  0  0  0  0  0  0  0  0  0  0
    3.1433    1.7306    0.0000 O   0  0  0  0  0  0  0  0  0  0  0  0
    4.3808    2.4450    0.0000 N   0  0  0  0  0  0  0  0  0  0  0  0
    1.9058    1.0160    0.0000 N   0  0  0  0  0  0  0  0  0  0  0  0
    4.3808   -0.4129    0.0000 C   0  0  0  0  0  0  0  0  0  0  0  0
    3.6664   -0.8254    0.0000 C   0  0  0  0  0  0  0  0  0  0  0  0
    5.0953   -0.8254    0.0000 C   0  0  0  0  0  0  0  0  0  0  0  0
    3.6664   -1.6504    0.0000 C   0  0  0  0  0  0  0  0  0  0  0  0
    4.7934    0.3015    0.0000 C   0  0  0  0  0  0  0  0  0  0  0  0
    3.9683    0.3015    0.0000 C   0  0  0  0  0  0  0  0  0  0  0  0
    5.0953   -1.6504    0.0000 C   0  0  0  0  0  0  0  0  0  0  0  0
    4.3808   -2.0630    0.0000 C   0  0  0  0  0  0  0  0  0  0  0  0
    2.9519   -0.4129    0.0000 C   0  0  0  0  0  0  0  0  0  0  0  0
    5.8098   -0.4129    0.0000 C   0  0  0  0  0  0  0  0  0  0  0  0
    4.3808   -2.8880    0.0000 C   0  0  0  0  0  0  0  0  0  0  0  0
    4.7934    1.7306    0.0000 C   0  0  0  0  0  0  0  0  0  0  0  0
    2.7308    1.0160    0.0000 C   0  0  0  0  0  0  0  0  0  0  0  0
  1 11  1  0  0  0  0
  1 18  1  0  0  0  0
  2 12  1  0  0  0  0
  2 19  1  0  0  0  0
  3 18  2  0  0  0  0
  4 19  2  0  0  0  0
  5 18  1  0  0  0  0
  6 19  1  0  0  0  0
  7  8  1  0  0  0  0
  7  9  1  0  0  0  0
  7 11  1  0  0  0  0
  7 12  1  0  0  0  0
  8 10  1  0  0  0  0
  8 15  1  0  0  0  0
  9 13  1  0  0  0  0
  9 16  1  0  0  0  0
 10 14  1  0  0  0  0
 13 14  2  0  0  0  0
 14 17  1  0  0  0  0
M  END
> <From>
www.bindingDB.org

> <BindingDB Reactant_set_id>
108151

> <Ligand InChI>
InChI=1S/C13H22N2O4/c1-8-4-9(2)13(10(3)5-8,6-18-11(14)16)7-19-12(15)17/h4,9-10H,5-7H2,1-3H3,(H2,14,16)(H2,15,17)

> <Ligand InChI Key>
XEEHTKGDCJESKY-UHFFFAOYSA-N

> <BindingDB MonomerID>
56831

> <BindingDB Ligand Name>
MLS000039809::SMR000038229::[1-(aminocarbonyloxymethyl)-2,4,6-trimethyl-cyclohex-3-en-1-yl]methyl carbamate::[1-(carbamoyloxymethyl)-2,4,6-trimethylcyclohex-3-en-1-yl]methyl carbamate::carbamic acid [1-(carbamoyloxymethyl)-2,4,6-trimethyl-1-cyclohex-3-enyl]methyl ester::carbamic acid [1-(carbamoyloxymethyl)-2,4,6-trimethyl-cyclohex-3-en-1-yl]methyl ester::cid_657428

> <Target Name>
DNA repair protein RAD51 homolog 1

> <Target Source Organism According to Curator or DataSource>
Homo sapiens

> <Ki (nM)>


> <IC50 (nM)>
 85000

> <Kd (nM)>


> <EC50 (nM)>


> <kon (M-1-s-1)>


> <koff (s-1)>


> <pH>


> <Temp C>


> <Curation/DataSource>
PubChem

> <Article DOI>


> <BindingDB Entry DOI>
10.7270/Q2BV7F1T

> <PMID>


> <PubChem AID>
aid1435

> <Patent Number>


> <Authors>
PubChem, PC

> <Date of publication>
11/21/2008

> <Date in BindingDB>
6/8/2011

> <Institution>
PCMD

> <Link to Ligand in BindingDB>
http://www.bindingdb.org/bind/chemsearch/marvin/MolStructure.jsp?monomerid=56831

> <Link to Ligand-Target Pair in BindingDB>
http://www.bindingdb.org/jsp/dbsearch/PrimarySearch_ki.jsp?energyterm=kJ/mole&tag=pol&polymerid=4676&target=DNA+repair+protein+RAD51+homolog+1&column=ki&startPg=0&Increment=50&submit=Search

> <Link to Ligand-Target Pair in BindingDB>
http://www.bindingdb.org/jsp/dbsearch/PrimarySearch_ki.jsp?energyterm=kJ/mole&tag=r21&monomerid=56831&enzyme=DNA+repair+protein+RAD51+homolog+1&column=ki&startPg=0&Increment=50&submit=Search

> <Ligand HET ID in PDB>


> <PDB ID(s) for Ligand-Target Complex>


> <PubChem CID of Ligand>
657428

> <PubChem SID of Ligand>
252636787

> <ChEBI ID of Ligand>


> <ChEMBL ID of Ligand>


> <DrugBank ID of Ligand>


> <IUPHAR_GRAC ID of Ligand>


> <KEGG ID of Ligand>


> <ZINC ID of Ligand>
ZINC04340213

> <Number of Protein Chains in Target (bigger than 1 implies a multichain complex)>
1

> <BindingDB Target Chain Sequence>
MAMQMQLEANADTSVEEESFGPQPISRLEQCGINANDVKKLEEAGFHTVEAVAYAPKKELINIKGISEAKADKILAEAAKLVPMGFTTATEFHQRRSEIIQITTGSKELDKLLQGGIETGSITEMFGEFRTGKTQICHTLAVTCQLPIDRGGGEGKAMYIDTEGTFRPERLLAVAERYGLSGSDVLDNVAYARAFNTDHQTQLLYQASAMMVESRYALLIVDSATALYRTDYSGRGELSARQMHLARFLRMLLRLADEFGVAVVITNQVVAQVDGAAMFAADPKKPIGGNIIAHASTTRLYLRKGRGETRICKIYDSPCLPEAEAMFAINADGVGDAKD

> <PDB ID(s) of Target Chain>
1N0W,5JZC,5NP7,5NWL,8BQ2,8BR2,8BSC

> <UniProt (SwissProt) Recommended Name of Target Chain>
DNA repair protein RAD51 homolog 1

> <UniProt (SwissProt) Entry Name of Target Chain>
RAD51_HUMAN

> <UniProt (SwissProt) Primary ID of Target Chain>
Q06609

> <UniProt (SwissProt) Secondary ID(s) of Target Chain>
B0FXP0 B2R8T6 Q6FHX9 Q6ZNA8 Q9BV60

> <UniProt (SwissProt) Alternative ID(s) of Target Chain>


> <UniProt (TrEMBL) Submitted Name of Target Chain>


> <UniProt (TrEMBL) Entry Name of Target Chain>


> <UniProt (TrEMBL) Primary ID of Target Chain>


> <UniProt (TrEMBL) Secondary ID(s) of Target Chain>


> <UniProt (TrEMBL) Alternative ID(s) of Target Chain>


$$$$
657436
  Mrv0541 11191410422D          

 11 12  0  0  0  0            999 V2000
    2.3645    1.2375    0.0000 O   0  0  0  0  0  0  0  0  0  0  0  0
    4.3412   -0.4125    0.0000 N   0  0  0  0  0  0  0  0  0  0  0  0
    3.8597   -1.0764    0.0000 N   0  0  0  0  0  0  0  0  0  0  0  0
    1.6500   -0.8250    0.0000 C   0  0  0  0  0  0  0  0  0  0  0  0
    2.3645   -1.2375    0.0000 C   0  0  0  0  0  0  0  0  0  0  0  0
    1.6500    0.0000    0.0000 C   0  0  0  0  0  0  0  0  0  0  0  0
    3.0790   -0.8250    0.0000 C   0  0  0  0  0  0  0  0  0  0  0  0
    3.0790    0.0000    0.0000 C   0  0  0  0  0  0  0  0  0  0  0  0
    2.3645    0.4125    0.0000 C   0  0  0  0  0  0  0  0  0  0  0  0
    3.8597    0.2514    0.0000 C   0  0  0  0  0  0  0  0  0  0  0  0
    4.1159    1.0356    0.0000 C   0  0  0  0  0  0  0  0  0  0  0  0
  1  9  2  0  0  0  0
  2  3  1  0  0  0  0
  2 10  1  0  0  0  0
  3  7  2  0  0  0  0
  4  5  1  0  0  0  0
  4  6  1  0  0  0  0
  5  7  1  0  0  0  0
  6  9  1  0  0  0  0
  7  8  1  0  0  0  0
  8  9  1  0  0  0  0
  8 10  2  0  0  0  0
 10 11  1  0  0  0  0
M  END
> <From>
www.bindingDB.org

> <BindingDB Reactant_set_id>
108152

> <Ligand InChI>
InChI=1S/C8H10N2O/c1-5-8-6(10-9-5)3-2-4-7(8)11/h2-4H2,1H3,(H,9,10)

> <Ligand InChI Key>
VROXGINCMQLXRS-UHFFFAOYSA-N

> <BindingDB MonomerID>
56832

> <BindingDB Ligand Name>
3-methyl-2,5,6,7-tetrahydroindazol-4-one::MLS000039787::SMR000038253::cid_657436

> <Target Name>
DNA repair protein RAD51 homolog 1

> <Target Source Organism According to Curator or DataSource>
Homo sapiens

> <Ki (nM)>


> <IC50 (nM)>
 85000

> <Kd (nM)>


> <EC50 (nM)>


> <kon (M-1-s-1)>


> <koff (s-1)>


> <pH>


> <Temp C>


> <Curation/DataSource>
PubChem

> <Article DOI>


> <BindingDB Entry DOI>
10.7270/Q2BV7F1T

> <PMID>


> <PubChem AID>
aid1435

> <Patent Number>


> <Authors>
PubChem, PC

> <Date of publication>
11/21/2008

> <Date in BindingDB>
6/8/2011

> <Institution>
PCMD

> <Link to Ligand in BindingDB>
http://www.bindingdb.org/bind/chemsearch/marvin/MolStructure.jsp?monomerid=56832

> <Link to Ligand-Target Pair in BindingDB>
http://www.bindingdb.org/jsp/dbsearch/PrimarySearch_ki.jsp?energyterm=kJ/mole&tag=pol&polymerid=4676&target=DNA+repair+protein+RAD51+homolog+1&column=ki&startPg=0&Increment=50&submit=Search

> <Link to Ligand-Target Pair in BindingDB>
http://www.bindingdb.org/jsp/dbsearch/PrimarySearch_ki.jsp?energyterm=kJ/mole&tag=r21&monomerid=56832&enzyme=DNA+repair+protein+RAD51+homolog+1&column=ki&startPg=0&Increment=50&submit=Search

> <Ligand HET ID in PDB>


> <PDB ID(s) for Ligand-Target Complex>


> <PubChem CID of Ligand>
657436

> <PubChem SID of Ligand>
252636788

> <ChEBI ID of Ligand>


> <ChEMBL ID of Ligand>


> <DrugBank ID of Ligand>


> <IUPHAR_GRAC ID of Ligand>


> <KEGG ID of Ligand>


> <ZINC ID of Ligand>
ZINC06663580

> <Number of Protein Chains in Target (bigger than 1 implies a multichain complex)>
1

> <BindingDB Target Chain Sequence>
MAMQMQLEANADTSVEEESFGPQPISRLEQCGINANDVKKLEEAGFHTVEAVAYAPKKELINIKGISEAKADKILAEAAKLVPMGFTTATEFHQRRSEIIQITTGSKELDKLLQGGIETGSITEMFGEFRTGKTQICHTLAVTCQLPIDRGGGEGKAMYIDTEGTFRPERLLAVAERYGLSGSDVLDNVAYARAFNTDHQTQLLYQASAMMVESRYALLIVDSATALYRTDYSGRGELSARQMHLARFLRMLLRLADEFGVAVVITNQVVAQVDGAAMFAADPKKPIGGNIIAHASTTRLYLRKGRGETRICKIYDSPCLPEAEAMFAINADGVGDAKD

> <PDB ID(s) of Target Chain>
1N0W,5JZC,5NP7,5NWL,8BQ2,8BR2,8BSC

> <UniProt (SwissProt) Recommended Name of Target Chain>
DNA repair protein RAD51 homolog 1

> <UniProt (SwissProt) Entry Name of Target Chain>
RAD51_HUMAN

> <UniProt (SwissProt) Primary ID of Target Chain>
Q06609

> <UniProt (SwissProt) Secondary ID(s) of Target Chain>
B0FXP0 B2R8T6 Q6FHX9 Q6ZNA8 Q9BV60

> <UniProt (SwissProt) Alternative ID(s) of Target Chain>


> <UniProt (TrEMBL) Submitted Name of Target Chain>


> <UniProt (TrEMBL) Entry Name of Target Chain>


> <UniProt (TrEMBL) Primary ID of Target Chain>


> <UniProt (TrEMBL) Secondary ID(s) of Target Chain>


> <UniProt (TrEMBL) Alternative ID(s) of Target Chain>


$$$$
660055
  Mrv0541 11191410422D          

 25 27  0  0  0  0            999 V2000
    4.5080    4.1251    0.0000 Br  0  0  0  0  0  0  0  0  0  0  0  0
    4.5080    0.8250    0.0000 S   0  0  0  0  0  0  0  0  0  0  0  0
    5.2224   -2.8876    0.0000 O   0  0  0  0  0  0  0  0  0  0  0  0
    5.3330    0.8250    0.0000 O   0  0  0  0  0  0  0  0  0  0  0  0
    3.6830    0.8250    0.0000 O   0  0  0  0  0  0  0  0  0  0  0  0
    3.7935   -2.8876    0.0000 N   0  0  0  0  0  0  0  0  0  0  0  0
    2.3645   -3.7126    0.0000 N   0  0  0  0  0  0  0  0  0  0  0  0
    3.0790   -2.4751    0.0000 C   0  0  0  0  0  0  0  0  0  0  0  0
    3.7935   -3.7126    0.0000 C   0  0  0  0  0  0  0  0  0  0  0  0
    2.3645   -2.8876    0.0000 C   0  0  0  0  0  0  0  0  0  0  0  0
    3.0790   -4.1251    0.0000 C   0  0  0  0  0  0  0  0  0  0  0  0
    4.5080   -2.4751    0.0000 C   0  0  0  0  0  0  0  0  0  0  0  0
    1.6500   -4.1251    0.0000 C   0  0  0  0  0  0  0  0  0  0  0  0
    4.5080   -1.6500    0.0000 C   0  0  0  0  0  0  0  0  0  0  0  0
    4.5080    0.0000    0.0000 C   0  0  0  0  0  0  0  0  0  0  0  0
    5.2224   -1.2375    0.0000 C   0  0  0  0  0  0  0  0  0  0  0  0
    3.7935   -1.2375    0.0000 C   0  0  0  0  0  0  0  0  0  0  0  0
    5.2224   -0.4125    0.0000 C   0  0  0  0  0  0  0  0  0  0  0  0
    3.7935   -0.4125    0.0000 C   0  0  0  0  0  0  0  0  0  0  0  0
    4.5080    1.6500    0.0000 C   0  0  0  0  0  0  0  0  0  0  0  0
    5.2224    2.0625    0.0000 C   0  0  0  0  0  0  0  0  0  0  0  0
    3.7935    2.0625    0.0000 C   0  0  0  0  0  0  0  0  0  0  0  0
    5.2224    2.8876    0.0000 C   0  0  0  0  0  0  0  0  0  0  0  0
    3.7935    2.8876    0.0000 C   0  0  0  0  0  0  0  0  0  0  0  0
    4.5080    3.3001    0.0000 C   0  0  0  0  0  0  0  0  0  0  0  0
  1 25  1  0  0  0  0
  2  4  2  0  0  0  0
  2  5  2  0  0  0  0
  2 15  1  0  0  0  0
  2 20  1  0  0  0  0
  3 12  2  0  0  0  0
  6  8  1  0  0  0  0
  6  9  1  0  0  0  0
  6 12  1  0  0  0  0
  7 10  1  0  0  0  0
  7 11  1  0  0  0  0
  7 13  1  0  0  0  0
  8 10  1  0  0  0  0
  9 11  1  0  0  0  0
 12 14  1  0  0  0  0
 14 16  2  0  0  0  0
 14 17  1  0  0  0  0
 15 18  2  0  0  0  0
 15 19  1  0  0  0  0
 16 18  1  0  0  0  0
 17 19  2  0  0  0  0
 20 21  2  0  0  0  0
 20 22  1  0  0  0  0
 21 23  1  0  0  0  0
 22 24  2  0  0  0  0
 23 25  2  0  0  0  0
 24 25  1  0  0  0  0
M  END
> <From>
www.bindingDB.org

> <BindingDB Reactant_set_id>
108153

> <Ligand InChI>
InChI=1S/C18H19BrN2O3S/c1-20-10-12-21(13-11-20)18(22)14-2-6-16(7-3-14)25(23,24)17-8-4-15(19)5-9-17/h2-9H,10-13H2,1H3

> <Ligand InChI Key>
QHJLQUYVLBPHDR-UHFFFAOYSA-N

> <BindingDB MonomerID>
56833

> <BindingDB Ligand Name>
(4-brosylphenyl)-(4-methylpiperazino)methanone::MLS000036244::SMR000041005::[4-(4-bromophenyl)sulfonylphenyl]-(4-methyl-1-piperazinyl)methanone::[4-(4-bromophenyl)sulfonylphenyl]-(4-methylpiperazin-1-yl)methanone::cid_660055

> <Target Name>
DNA repair protein RAD51 homolog 1

> <Target Source Organism According to Curator or DataSource>
Homo sapiens

> <Ki (nM)>


> <IC50 (nM)>
 85000

> <Kd (nM)>


> <EC50 (nM)>


> <kon (M-1-s-1)>


> <koff (s-1)>


> <pH>


> <Temp C>


> <Curation/DataSource>
PubChem

> <Article DOI>


> <BindingDB Entry DOI>
10.7270/Q2BV7F1T

> <PMID>


> <PubChem AID>
aid1435

> <Patent Number>


> <Authors>
PubChem, PC

> <Date of publication>
11/21/2008

> <Date in BindingDB>
6/8/2011

> <Institution>
PCMD

> <Link to Ligand in BindingDB>
http://www.bindingdb.org/bind/chemsearch/marvin/MolStructure.jsp?monomerid=56833

> <Link to Ligand-Target Pair in BindingDB>
http://www.bindingdb.org/jsp/dbsearch/PrimarySearch_ki.jsp?energyterm=kJ/mole&tag=pol&polymerid=4676&target=DNA+repair+protein+RAD51+homolog+1&column=ki&startPg=0&Increment=50&submit=Search

> <Link to Ligand-Target Pair in BindingDB>
http://www.bindingdb.org/jsp/dbsearch/PrimarySearch_ki.jsp?energyterm=kJ/mole&tag=r21&monomerid=56833&enzyme=DNA+repair+protein+RAD51+homolog+1&column=ki&startPg=0&Increment=50&submit=Search

> <Ligand HET ID in PDB>


> <PDB ID(s) for Ligand-Target Complex>


> <PubChem CID of Ligand>
660055

> <PubChem SID of Ligand>
252636789

> <ChEBI ID of Ligand>


> <ChEMBL ID of Ligand>


> <DrugBank ID of Ligand>


> <IUPHAR_GRAC ID of Ligand>


> <KEGG ID of Ligand>


> <ZINC ID of Ligand>
ZINC02312754

> <Number of Protein Chains in Target (bigger than 1 implies a multichain complex)>
1

> <BindingDB Target Chain Sequence>
MAMQMQLEANADTSVEEESFGPQPISRLEQCGINANDVKKLEEAGFHTVEAVAYAPKKELINIKGISEAKADKILAEAAKLVPMGFTTATEFHQRRSEIIQITTGSKELDKLLQGGIETGSITEMFGEFRTGKTQICHTLAVTCQLPIDRGGGEGKAMYIDTEGTFRPERLLAVAERYGLSGSDVLDNVAYARAFNTDHQTQLLYQASAMMVESRYALLIVDSATALYRTDYSGRGELSARQMHLARFLRMLLRLADEFGVAVVITNQVVAQVDGAAMFAADPKKPIGGNIIAHASTTRLYLRKGRGETRICKIYDSPCLPEAEAMFAINADGVGDAKD

> <PDB ID(s) of Target Chain>
1N0W,5JZC,5NP7,5NWL,8BQ2,8BR2,8BSC

> <UniProt (SwissProt) Recommended Name of Target Chain>
DNA repair protein RAD51 homolog 1

> <UniProt (SwissProt) Entry Name of Target Chain>
RAD51_HUMAN

> <UniProt (SwissProt) Primary ID of Target Chain>
Q06609

> <UniProt (SwissProt) Secondary ID(s) of Target Chain>
B0FXP0 B2R8T6 Q6FHX9 Q6ZNA8 Q9BV60

> <UniProt (SwissProt) Alternative ID(s) of Target Chain>


> <UniProt (TrEMBL) Submitted Name of Target Chain>


> <UniProt (TrEMBL) Entry Name of Target Chain>


> <UniProt (TrEMBL) Primary ID of Target Chain>


> <UniProt (TrEMBL) Secondary ID(s) of Target Chain>


> <UniProt (TrEMBL) Alternative ID(s) of Target Chain>


$$$$
660526
  Mrv0541 11251416042D          

 31 34  0  0  0  0            999 V2000
    5.5245    0.4295    0.0000 O   0  0  0  0  0  0  0  0  0  0  0  0
    4.5080   -1.9350    0.0000 O   0  0  0  0  0  0  0  0  0  0  0  0
    3.0790   -0.2850    0.0000 O   0  0  0  0  0  0  0  0  0  0  0  0
    3.7935   -1.5225    0.0000 O   0  0  0  0  0  0  0  0  0  0  0  0
    8.7386   -1.1100    0.0000 N   0  0  0  0  0  0  0  0  0  0  0  0
    7.4321   -0.4461    0.0000 N   0  0  0  0  0  0  0  0  0  0  0  0
    7.4321   -1.7739    0.0000 N   0  0  0  0  0  0  0  0  0  0  0  0
    5.9370   -1.9350    0.0000 N   0  0  0  0  0  0  0  0  0  0  0  0
    5.2224   -0.6975    0.0000 N   0  0  0  0  0  0  0  0  0  0  0  0
    9.1511   -1.8244    0.0000 C   0  0  0  0  0  0  0  0  0  0  0  0
    9.1511   -0.3955    0.0000 C   0  0  0  0  0  0  0  0  0  0  0  0
    9.9761   -0.3955    0.0000 C   0  0  0  0  0  0  0  0  0  0  0  0
    9.9761   -1.8244    0.0000 C   0  0  0  0  0  0  0  0  0  0  0  0
   10.3886   -1.1100    0.0000 C   0  0  0  0  0  0  0  0  0  0  0  0
    7.9136   -1.1100    0.0000 C   0  0  0  0  0  0  0  0  0  0  0  0
    6.6515   -0.6975    0.0000 C   0  0  0  0  0  0  0  0  0  0  0  0
    6.6515   -1.5225    0.0000 C   0  0  0  0  0  0  0  0  0  0  0  0
    7.6884    0.3382    0.0000 C   0  0  0  0  0  0  0  0  0  0  0  0
    5.9370   -0.2850    0.0000 C   0  0  0  0  0  0  0  0  0  0  0  0
    5.2224   -1.5225    0.0000 C   0  0  0  0  0  0  0  0  0  0  0  0
    7.5182    1.1455    0.0000 C   0  0  0  0  0  0  0  0  0  0  0  0
    5.9370   -2.7600    0.0000 C   0  0  0  0  0  0  0  0  0  0  0  0
    4.5080   -0.2850    0.0000 C   0  0  0  0  0  0  0  0  0  0  0  0
    8.1323    1.6964    0.0000 C   0  0  0  0  0  0  0  0  0  0  0  0
    6.7340    1.4017    0.0000 C   0  0  0  0  0  0  0  0  0  0  0  0
    3.7935   -0.6975    0.0000 C   0  0  0  0  0  0  0  0  0  0  0  0
    7.9622    2.5037    0.0000 C   0  0  0  0  0  0  0  0  0  0  0  0
    6.5639    2.2090    0.0000 C   0  0  0  0  0  0  0  0  0  0  0  0
    7.1780    2.7600    0.0000 C   0  0  0  0  0  0  0  0  0  0  0  0
    2.3645   -0.6975    0.0000 C   0  0  0  0  0  0  0  0  0  0  0  0
    1.6500   -0.2850    0.0000 C   0  0  0  0  0  0  0  0  0  0  0  0
  1 19  2  0  0  0  0
  2 20  2  0  0  0  0
  3 26  1  0  0  0  0
  3 30  1  0  0  0  0
  4 26  2  0  0  0  0
  5 10  1  0  0  0  0
  5 11  1  0  0  0  0
  5 15  1  0  0  0  0
  6 15  1  0  0  0  0
  6 16  1  0  0  0  0
  6 18  1  0  0  0  0
  7 15  2  0  0  0  0
  7 17  1  0  0  0  0
  8 17  1  0  0  0  0
  8 20  1  0  0  0  0
  8 22  1  0  0  0  0
  9 19  1  0  0  0  0
  9 20  1  0  0  0  0
  9 23  1  0  0  0  0
 10 13  1  0  0  0  0
 11 12  1  0  0  0  0
 12 14  1  0  0  0  0
 13 14  1  0  0  0  0
 16 17  2  0  0  0  0
 16 19  1  0  0  0  0
 18 21  1  0  0  0  0
 21 24  2  0  0  0  0
 21 25  1  0  0  0  0
 23 26  1  0  0  0  0
 24 27  1  0  0  0  0
 25 28  2  0  0  0  0
 27 29  2  0  0  0  0
 28 29  1  0  0  0  0
 30 31  1  0  0  0  0
M  END
> <From>
www.bindingDB.org

> <BindingDB Reactant_set_id>
108154

> <Ligand InChI>
InChI=1S/C22H27N5O4/c1-3-31-17(28)15-27-20(29)18-19(24(2)22(27)30)23-21(25-12-8-5-9-13-25)26(18)14-16-10-6-4-7-11-16/h4,6-7,10-11H,3,5,8-9,12-15H2,1-2H3

> <Ligand InChI Key>
UEUBDMGNETZVBL-UHFFFAOYSA-N

> <BindingDB MonomerID>
51319

> <BindingDB Ligand Name>
2-(7-benzyl-2,6-diketo-3-methyl-8-piperidino-purin-1-yl)acetic acid ethyl ester::2-[3-methyl-2,6-dioxo-7-(phenylmethyl)-8-(1-piperidinyl)-1-purinyl]acetic acid ethyl ester::EPIRUBICIN HYDROCHLORIDE::MLS000037525::MLS001401404::SMR000041357::SMR000466308::cid_65348::cid_660526::ethyl 2-(7-benzyl-3-methyl-2,6-dioxo-8-piperidin-1-ylpurin-1-yl)acetate::ethyl 2-[3-methyl-2,6-bis(oxidanylidene)-7-(phenylmethyl)-8-piperidin-1-yl-purin-1-yl]ethanoate

> <Target Name>
DNA repair protein RAD51 homolog 1

> <Target Source Organism According to Curator or DataSource>
Homo sapiens

> <Ki (nM)>


> <IC50 (nM)>
 85000

> <Kd (nM)>


> <EC50 (nM)>


> <kon (M-1-s-1)>


> <koff (s-1)>


> <pH>


> <Temp C>


> <Curation/DataSource>
PubChem

> <Article DOI>


> <BindingDB Entry DOI>
10.7270/Q2BV7F1T

> <PMID>


> <PubChem AID>
aid1435

> <Patent Number>


> <Authors>
PubChem, PC

> <Date of publication>
11/21/2008

> <Date in BindingDB>
6/8/2011

> <Institution>
PCMD

> <Link to Ligand in BindingDB>
http://www.bindingdb.org/bind/chemsearch/marvin/MolStructure.jsp?monomerid=51319

> <Link to Ligand-Target Pair in BindingDB>
http://www.bindingdb.org/jsp/dbsearch/PrimarySearch_ki.jsp?energyterm=kJ/mole&tag=pol&polymerid=4676&target=DNA+repair+protein+RAD51+homolog+1&column=ki&startPg=0&Increment=50&submit=Search

> <Link to Ligand-Target Pair in BindingDB>
http://www.bindingdb.org/jsp/dbsearch/PrimarySearch_ki.jsp?energyterm=kJ/mole&tag=r21&monomerid=51319&enzyme=DNA+repair+protein+RAD51+homolog+1&column=ki&startPg=0&Increment=50&submit=Search

> <Ligand HET ID in PDB>


> <PDB ID(s) for Ligand-Target Complex>


> <PubChem CID of Ligand>
660526

> <PubChem SID of Ligand>
252631542

> <ChEBI ID of Ligand>


> <ChEMBL ID of Ligand>


> <DrugBank ID of Ligand>


> <IUPHAR_GRAC ID of Ligand>


> <KEGG ID of Ligand>


> <ZINC ID of Ligand>
ZINC13115922

> <Number of Protein Chains in Target (bigger than 1 implies a multichain complex)>
1

> <BindingDB Target Chain Sequence>
MAMQMQLEANADTSVEEESFGPQPISRLEQCGINANDVKKLEEAGFHTVEAVAYAPKKELINIKGISEAKADKILAEAAKLVPMGFTTATEFHQRRSEIIQITTGSKELDKLLQGGIETGSITEMFGEFRTGKTQICHTLAVTCQLPIDRGGGEGKAMYIDTEGTFRPERLLAVAERYGLSGSDVLDNVAYARAFNTDHQTQLLYQASAMMVESRYALLIVDSATALYRTDYSGRGELSARQMHLARFLRMLLRLADEFGVAVVITNQVVAQVDGAAMFAADPKKPIGGNIIAHASTTRLYLRKGRGETRICKIYDSPCLPEAEAMFAINADGVGDAKD

> <PDB ID(s) of Target Chain>
1N0W,5JZC,5NP7,5NWL,8BQ2,8BR2,8BSC

> <UniProt (SwissProt) Recommended Name of Target Chain>
DNA repair protein RAD51 homolog 1

> <UniProt (SwissProt) Entry Name of Target Chain>
RAD51_HUMAN

> <UniProt (SwissProt) Primary ID of Target Chain>
Q06609

> <UniProt (SwissProt) Secondary ID(s) of Target Chain>
B0FXP0 B2R8T6 Q6FHX9 Q6ZNA8 Q9BV60

> <UniProt (SwissProt) Alternative ID(s) of Target Chain>


> <UniProt (TrEMBL) Submitted Name of Target Chain>


> <UniProt (TrEMBL) Entry Name of Target Chain>


> <UniProt (TrEMBL) Primary ID of Target Chain>


> <UniProt (TrEMBL) Secondary ID(s) of Target Chain>


> <UniProt (TrEMBL) Alternative ID(s) of Target Chain>


$$$$
664327
  Mrv0541 11191410422D          

 16 17  0  0  0  0            999 V2000
    2.3888    0.5203    0.0000 S   0  0  0  0  0  0  0  0  0  0  0  0
    5.1214    0.8174    0.0000 O   0  0  0  0  0  0  0  0  0  0  0  0
    4.6798   -0.5416    0.0000 O   0  0  0  0  0  0  0  0  0  0  0  0
    3.4687    1.3049    0.0000 N   0  0  0  0  0  0  0  0  0  0  0  0
    2.1587    1.9724    0.0000 N   0  0  0  0  0  0  0  0  0  0  0  0
    3.0562    0.0354    0.0000 C   0  0  0  0  0  0  0  0  0  0  0  0
    3.0562   -0.7896    0.0000 C   0  0  0  0  0  0  0  0  0  0  0  0
    3.7236    0.5203    0.0000 C   0  0  0  0  0  0  0  0  0  0  0  0
    2.3417   -1.2021    0.0000 C   0  0  0  0  0  0  0  0  0  0  0  0
    3.7707   -1.2021    0.0000 C   0  0  0  0  0  0  0  0  0  0  0  0
    2.6437    1.3049    0.0000 C   0  0  0  0  0  0  0  0  0  0  0  0
    2.3417   -2.0272    0.0000 C   0  0  0  0  0  0  0  0  0  0  0  0
    3.7707   -2.0272    0.0000 C   0  0  0  0  0  0  0  0  0  0  0  0
    4.5083    0.2653    0.0000 C   0  0  0  0  0  0  0  0  0  0  0  0
    3.0562   -2.4397    0.0000 C   0  0  0  0  0  0  0  0  0  0  0  0
    5.9061    0.5625    0.0000 C   0  0  0  0  0  0  0  0  0  0  0  0
  1  6  1  0  0  0  0
  1 11  1  0  0  0  0
  2 14  1  0  0  0  0
  2 16  1  0  0  0  0
  3 14  2  0  0  0  0
  4  8  1  0  0  0  0
  4 11  2  0  0  0  0
  5 11  1  0  0  0  0
  6  7  1  0  0  0  0
  6  8  2  0  0  0  0
  7  9  2  0  0  0  0
  7 10  1  0  0  0  0
  8 14  1  0  0  0  0
  9 12  1  0  0  0  0
 10 13  2  0  0  0  0
 12 15  2  0  0  0  0
 13 15  1  0  0  0  0
M  END
> <From>
www.bindingDB.org

> <BindingDB Reactant_set_id>
108155

> <Ligand InChI>
InChI=1S/C11H10N2O2S/c1-15-10(14)8-9(16-11(12)13-8)7-5-3-2-4-6-7/h2-6H,1H3,(H2,12,13)

> <Ligand InChI Key>
FKNMSTRVGQEASS-UHFFFAOYSA-N

> <BindingDB MonomerID>
56835

> <BindingDB Ligand Name>
2-amino-5-phenyl-4-thiazolecarboxylic acid methyl ester::2-amino-5-phenyl-thiazole-4-carboxylic acid methyl ester::MLS000080341::SMR000038180::cid_664327::methyl 2-amino-5-phenyl-1,3-thiazole-4-carboxylate::methyl 2-azanyl-5-phenyl-1,3-thiazole-4-carboxylate

> <Target Name>
DNA repair protein RAD51 homolog 1

> <Target Source Organism According to Curator or DataSource>
Homo sapiens

> <Ki (nM)>


> <IC50 (nM)>
 42500

> <Kd (nM)>


> <EC50 (nM)>


> <kon (M-1-s-1)>


> <koff (s-1)>


> <pH>


> <Temp C>


> <Curation/DataSource>
PubChem

> <Article DOI>


> <BindingDB Entry DOI>
10.7270/Q2BV7F1T

> <PMID>


> <PubChem AID>
aid1435

> <Patent Number>


> <Authors>
PubChem, PC

> <Date of publication>
11/21/2008

> <Date in BindingDB>
6/8/2011

> <Institution>
PCMD

> <Link to Ligand in BindingDB>
http://www.bindingdb.org/bind/chemsearch/marvin/MolStructure.jsp?monomerid=56835

> <Link to Ligand-Target Pair in BindingDB>
http://www.bindingdb.org/jsp/dbsearch/PrimarySearch_ki.jsp?energyterm=kJ/mole&tag=pol&polymerid=4676&target=DNA+repair+protein+RAD51+homolog+1&column=ki&startPg=0&Increment=50&submit=Search

> <Link to Ligand-Target Pair in BindingDB>
http://www.bindingdb.org/jsp/dbsearch/PrimarySearch_ki.jsp?energyterm=kJ/mole&tag=r21&monomerid=56835&enzyme=DNA+repair+protein+RAD51+homolog+1&column=ki&startPg=0&Increment=50&submit=Search

> <Ligand HET ID in PDB>


> <PDB ID(s) for Ligand-Target Complex>


> <PubChem CID of Ligand>
664327

> <PubChem SID of Ligand>
252636790

> <ChEBI ID of Ligand>


> <ChEMBL ID of Ligand>


> <DrugBank ID of Ligand>


> <IUPHAR_GRAC ID of Ligand>


> <KEGG ID of Ligand>


> <ZINC ID of Ligand>
ZINC00169565

> <Number of Protein Chains in Target (bigger than 1 implies a multichain complex)>
1

> <BindingDB Target Chain Sequence>
MAMQMQLEANADTSVEEESFGPQPISRLEQCGINANDVKKLEEAGFHTVEAVAYAPKKELINIKGISEAKADKILAEAAKLVPMGFTTATEFHQRRSEIIQITTGSKELDKLLQGGIETGSITEMFGEFRTGKTQICHTLAVTCQLPIDRGGGEGKAMYIDTEGTFRPERLLAVAERYGLSGSDVLDNVAYARAFNTDHQTQLLYQASAMMVESRYALLIVDSATALYRTDYSGRGELSARQMHLARFLRMLLRLADEFGVAVVITNQVVAQVDGAAMFAADPKKPIGGNIIAHASTTRLYLRKGRGETRICKIYDSPCLPEAEAMFAINADGVGDAKD

> <PDB ID(s) of Target Chain>
1N0W,5JZC,5NP7,5NWL,8BQ2,8BR2,8BSC

> <UniProt (SwissProt) Recommended Name of Target Chain>
DNA repair protein RAD51 homolog 1

> <UniProt (SwissProt) Entry Name of Target Chain>
RAD51_HUMAN

> <UniProt (SwissProt) Primary ID of Target Chain>
Q06609

> <UniProt (SwissProt) Secondary ID(s) of Target Chain>
B0FXP0 B2R8T6 Q6FHX9 Q6ZNA8 Q9BV60

> <UniProt (SwissProt) Alternative ID(s) of Target Chain>


> <UniProt (TrEMBL) Submitted Name of Target Chain>


> <UniProt (TrEMBL) Entry Name of Target Chain>


> <UniProt (TrEMBL) Primary ID of Target Chain>


> <UniProt (TrEMBL) Secondary ID(s) of Target Chain>


> <UniProt (TrEMBL) Alternative ID(s) of Target Chain>


$$$$
665399
  Mrv0541 11191410422D          

 19 21  0  0  0  0            999 V2000
    2.7577    0.8814    0.0000 O   0  0  0  0  0  0  0  0  0  0  0  0
    3.8597   -0.3468    0.0000 N   0  0  0  0  0  0  0  0  0  0  0  0
    4.1159    0.4374    0.0000 N   0  0  0  0  0  0  0  0  0  0  0  0
    4.3412   -1.0106    0.0000 C   0  0  0  0  0  0  0  0  0  0  0  0
    3.0790   -0.5981    0.0000 C   0  0  0  0  0  0  0  0  0  0  0  0
    3.0790   -1.4232    0.0000 C   0  0  0  0  0  0  0  0  0  0  0  0
    3.8597   -1.6746    0.0000 C   0  0  0  0  0  0  0  0  0  0  0  0
    5.1662   -1.0106    0.0000 C   0  0  0  0  0  0  0  0  0  0  0  0
    2.3645   -0.1856    0.0000 C   0  0  0  0  0  0  0  0  0  0  0  0
    2.3645   -1.8357    0.0000 C   0  0  0  0  0  0  0  0  0  0  0  0
    1.6500   -0.5981    0.0000 C   0  0  0  0  0  0  0  0  0  0  0  0
    1.6500   -1.4232    0.0000 C   0  0  0  0  0  0  0  0  0  0  0  0
    5.5787   -1.7252    0.0000 C   0  0  0  0  0  0  0  0  0  0  0  0
    5.5787   -0.2962    0.0000 C   0  0  0  0  0  0  0  0  0  0  0  0
    3.5650    1.0515    0.0000 C   0  0  0  0  0  0  0  0  0  0  0  0
    6.4037   -1.7252    0.0000 C   0  0  0  0  0  0  0  0  0  0  0  0
    6.4037   -0.2962    0.0000 C   0  0  0  0  0  0  0  0  0  0  0  0
    6.8162   -1.0106    0.0000 C   0  0  0  0  0  0  0  0  0  0  0  0
    3.8213    1.8357    0.0000 C   0  0  0  0  0  0  0  0  0  0  0  0
  1 15  2  0  0  0  0
  2  3  1  0  0  0  0
  2  4  1  0  0  0  0
  2  5  1  0  0  0  0
  3 15  1  0  0  0  0
  4  7  2  0  0  0  0
  4  8  1  0  0  0  0
  5  6  1  0  0  0  0
  5  9  2  0  0  0  0
  6  7  1  0  0  0  0
  6 10  2  0  0  0  0
  8 13  2  0  0  0  0
  8 14  1  0  0  0  0
  9 11  1  0  0  0  0
 10 12  1  0  0  0  0
 11 12  2  0  0  0  0
 13 16  1  0  0  0  0
 14 17  2  0  0  0  0
 15 19  1  0  0  0  0
 16 18  2  0  0  0  0
 17 18  1  0  0  0  0
M  END
> <From>
www.bindingDB.org

> <BindingDB Reactant_set_id>
108156

> <Ligand InChI>
InChI=1S/C16H14N2O/c1-12(19)17-18-15-10-6-5-9-14(15)11-16(18)13-7-3-2-4-8-13/h2-11H,1H3,(H,17,19)

> <Ligand InChI Key>
PHQPITBFFQIGKA-UHFFFAOYSA-N

> <BindingDB MonomerID>
56836

> <BindingDB Ligand Name>
MLS000082684::N-(2-phenyl-1-indolyl)acetamide::N-(2-phenylindol-1-yl)acetamide::N-(2-phenylindol-1-yl)ethanamide::SMR000046460::cid_665399

> <Target Name>
DNA repair protein RAD51 homolog 1

> <Target Source Organism According to Curator or DataSource>
Homo sapiens

> <Ki (nM)>


> <IC50 (nM)>
 42500

> <Kd (nM)>


> <EC50 (nM)>


> <kon (M-1-s-1)>


> <koff (s-1)>


> <pH>


> <Temp C>


> <Curation/DataSource>
PubChem

> <Article DOI>


> <BindingDB Entry DOI>
10.7270/Q2BV7F1T

> <PMID>


> <PubChem AID>
aid1435

> <Patent Number>


> <Authors>
PubChem, PC

> <Date of publication>
11/21/2008

> <Date in BindingDB>
6/8/2011

> <Institution>
PCMD

> <Link to Ligand in BindingDB>
http://www.bindingdb.org/bind/chemsearch/marvin/MolStructure.jsp?monomerid=56836

> <Link to Ligand-Target Pair in BindingDB>
http://www.bindingdb.org/jsp/dbsearch/PrimarySearch_ki.jsp?energyterm=kJ/mole&tag=pol&polymerid=4676&target=DNA+repair+protein+RAD51+homolog+1&column=ki&startPg=0&Increment=50&submit=Search

> <Link to Ligand-Target Pair in BindingDB>
http://www.bindingdb.org/jsp/dbsearch/PrimarySearch_ki.jsp?energyterm=kJ/mole&tag=r21&monomerid=56836&enzyme=DNA+repair+protein+RAD51+homolog+1&column=ki&startPg=0&Increment=50&submit=Search

> <Ligand HET ID in PDB>


> <PDB ID(s) for Ligand-Target Complex>


> <PubChem CID of Ligand>
665399

> <PubChem SID of Ligand>
252636791

> <ChEBI ID of Ligand>


> <ChEMBL ID of Ligand>


> <DrugBank ID of Ligand>


> <IUPHAR_GRAC ID of Ligand>


> <KEGG ID of Ligand>


> <ZINC ID of Ligand>
ZINC04295819

> <Number of Protein Chains in Target (bigger than 1 implies a multichain complex)>
1

> <BindingDB Target Chain Sequence>
MAMQMQLEANADTSVEEESFGPQPISRLEQCGINANDVKKLEEAGFHTVEAVAYAPKKELINIKGISEAKADKILAEAAKLVPMGFTTATEFHQRRSEIIQITTGSKELDKLLQGGIETGSITEMFGEFRTGKTQICHTLAVTCQLPIDRGGGEGKAMYIDTEGTFRPERLLAVAERYGLSGSDVLDNVAYARAFNTDHQTQLLYQASAMMVESRYALLIVDSATALYRTDYSGRGELSARQMHLARFLRMLLRLADEFGVAVVITNQVVAQVDGAAMFAADPKKPIGGNIIAHASTTRLYLRKGRGETRICKIYDSPCLPEAEAMFAINADGVGDAKD

> <PDB ID(s) of Target Chain>
1N0W,5JZC,5NP7,5NWL,8BQ2,8BR2,8BSC

> <UniProt (SwissProt) Recommended Name of Target Chain>
DNA repair protein RAD51 homolog 1

> <UniProt (SwissProt) Entry Name of Target Chain>
RAD51_HUMAN

> <UniProt (SwissProt) Primary ID of Target Chain>
Q06609

> <UniProt (SwissProt) Secondary ID(s) of Target Chain>
B0FXP0 B2R8T6 Q6FHX9 Q6ZNA8 Q9BV60

> <UniProt (SwissProt) Alternative ID(s) of Target Chain>


> <UniProt (TrEMBL) Submitted Name of Target Chain>


> <UniProt (TrEMBL) Entry Name of Target Chain>


> <UniProt (TrEMBL) Primary ID of Target Chain>


> <UniProt (TrEMBL) Secondary ID(s) of Target Chain>


> <UniProt (TrEMBL) Alternative ID(s) of Target Chain>


$$$$
665441
  Mrv0541 11191410422D          

 27 30  0  0  0  0            999 V2000
    4.1499    3.1636    0.0000 F   0  0  0  0  0  0  0  0  0  0  0  0
    2.6664    0.0259    0.0000 O   0  0  0  0  0  0  0  0  0  0  0  0
    1.6500   -2.3386    0.0000 O   0  0  0  0  0  0  0  0  0  0  0  0
    4.5741   -0.8497    0.0000 N   0  0  0  0  0  0  0  0  0  0  0  0
    5.8806   -1.5136    0.0000 N   0  0  0  0  0  0  0  0  0  0  0  0
    3.0789   -2.3386    0.0000 N   0  0  0  0  0  0  0  0  0  0  0  0
    4.5741   -2.1775    0.0000 N   0  0  0  0  0  0  0  0  0  0  0  0
    2.3645   -1.1011    0.0000 N   0  0  0  0  0  0  0  0  0  0  0  0
    6.3655   -0.8461    0.0000 N   0  0  0  0  0  0  0  0  0  0  0  0
    3.7935   -1.1011    0.0000 C   0  0  0  0  0  0  0  0  0  0  0  0
    5.0556   -1.5136    0.0000 C   0  0  0  0  0  0  0  0  0  0  0  0
    3.7935   -1.9261    0.0000 C   0  0  0  0  0  0  0  0  0  0  0  0
    4.8304   -0.0655    0.0000 C   0  0  0  0  0  0  0  0  0  0  0  0
    3.0789   -0.6886    0.0000 C   0  0  0  0  0  0  0  0  0  0  0  0
    4.6602    0.7418    0.0000 C   0  0  0  0  0  0  0  0  0  0  0  0
    6.3655   -2.1811    0.0000 C   0  0  0  0  0  0  0  0  0  0  0  0
    2.3645   -1.9261    0.0000 C   0  0  0  0  0  0  0  0  0  0  0  0
    7.1502   -1.9261    0.0000 C   0  0  0  0  0  0  0  0  0  0  0  0
    7.1502   -1.1011    0.0000 C   0  0  0  0  0  0  0  0  0  0  0  0
    3.0789   -3.1636    0.0000 C   0  0  0  0  0  0  0  0  0  0  0  0
    6.1106   -2.9657    0.0000 C   0  0  0  0  0  0  0  0  0  0  0  0
    3.8761    0.9981    0.0000 C   0  0  0  0  0  0  0  0  0  0  0  0
    5.2743    1.2928    0.0000 C   0  0  0  0  0  0  0  0  0  0  0  0
    7.8176   -0.6162    0.0000 C   0  0  0  0  0  0  0  0  0  0  0  0
    3.7059    1.8054    0.0000 C   0  0  0  0  0  0  0  0  0  0  0  0
    5.1042    2.1001    0.0000 C   0  0  0  0  0  0  0  0  0  0  0  0
    4.3200    2.3563    0.0000 C   0  0  0  0  0  0  0  0  0  0  0  0
  1 27  1  0  0  0  0
  2 14  2  0  0  0  0
  3 17  2  0  0  0  0
  4 10  1  0  0  0  0
  4 11  1  0  0  0  0
  4 13  1  0  0  0  0
  5  9  1  0  0  0  0
  5 11  1  0  0  0  0
  5 16  1  0  0  0  0
  6 12  1  0  0  0  0
  6 17  1  0  0  0  0
  6 20  1  0  0  0  0
  7 11  2  0  0  0  0
  7 12  1  0  0  0  0
  8 14  1  0  0  0  0
  8 17  1  0  0  0  0
  9 19  2  0  0  0  0
 10 12  2  0  0  0  0
 10 14  1  0  0  0  0
 13 15  1  0  0  0  0
 15 22  2  0  0  0  0
 15 23  1  0  0  0  0
 16 18  2  0  0  0  0
 16 21  1  0  0  0  0
 18 19  1  0  0  0  0
 19 24  1  0  0  0  0
 22 25  1  0  0  0  0
 23 26  2  0  0  0  0
 25 27  2  0  0  0  0
 26 27  1  0  0  0  0
M  END
> <From>
www.bindingDB.org

> <BindingDB Reactant_set_id>
108157

> <Ligand InChI>
InChI=1S/C18H17FN6O2/c1-10-8-11(2)25(22-10)17-20-15-14(16(26)21-18(27)23(15)3)24(17)9-12-4-6-13(19)7-5-12/h4-8H,9H2,1-3H3,(H,21,26,27)

> <Ligand InChI Key>
GIVGLZJZTYNMRP-UHFFFAOYSA-N

> <BindingDB MonomerID>
56837

> <BindingDB Ligand Name>
8-(3,5-dimethyl-1-pyrazolyl)-7-[(4-fluorophenyl)methyl]-3-methylpurine-2,6-dione::8-(3,5-dimethylpyrazol-1-yl)-7-(4-fluorobenzyl)-3-methyl-xanthine::8-(3,5-dimethylpyrazol-1-yl)-7-[(4-fluorophenyl)methyl]-3-methyl-purine-2,6-dione::8-(3,5-dimethylpyrazol-1-yl)-7-[(4-fluorophenyl)methyl]-3-methylpurine-2,6-dione::MLS000083816::SMR000046638::cid_665441

> <Target Name>
DNA repair protein RAD51 homolog 1

> <Target Source Organism According to Curator or DataSource>
Homo sapiens

> <Ki (nM)>


> <IC50 (nM)>
 85000

> <Kd (nM)>


> <EC50 (nM)>


> <kon (M-1-s-1)>


> <koff (s-1)>


> <pH>


> <Temp C>


> <Curation/DataSource>
PubChem

> <Article DOI>


> <BindingDB Entry DOI>
10.7270/Q2BV7F1T

> <PMID>


> <PubChem AID>
aid1435

> <Patent Number>


> <Authors>
PubChem, PC

> <Date of publication>
11/21/2008

> <Date in BindingDB>
6/8/2011

> <Institution>
PCMD

> <Link to Ligand in BindingDB>
http://www.bindingdb.org/bind/chemsearch/marvin/MolStructure.jsp?monomerid=56837

> <Link to Ligand-Target Pair in BindingDB>
http://www.bindingdb.org/jsp/dbsearch/PrimarySearch_ki.jsp?energyterm=kJ/mole&tag=pol&polymerid=4676&target=DNA+repair+protein+RAD51+homolog+1&column=ki&startPg=0&Increment=50&submit=Search

> <Link to Ligand-Target Pair in BindingDB>
http://www.bindingdb.org/jsp/dbsearch/PrimarySearch_ki.jsp?energyterm=kJ/mole&tag=r21&monomerid=56837&enzyme=DNA+repair+protein+RAD51+homolog+1&column=ki&startPg=0&Increment=50&submit=Search

> <Ligand HET ID in PDB>


> <PDB ID(s) for Ligand-Target Complex>


> <PubChem CID of Ligand>
665441

> <PubChem SID of Ligand>
252636792

> <ChEBI ID of Ligand>


> <ChEMBL ID of Ligand>


> <DrugBank ID of Ligand>


> <IUPHAR_GRAC ID of Ligand>


> <KEGG ID of Ligand>


> <ZINC ID of Ligand>
ZINC02390194

> <Number of Protein Chains in Target (bigger than 1 implies a multichain complex)>
1

> <BindingDB Target Chain Sequence>
MAMQMQLEANADTSVEEESFGPQPISRLEQCGINANDVKKLEEAGFHTVEAVAYAPKKELINIKGISEAKADKILAEAAKLVPMGFTTATEFHQRRSEIIQITTGSKELDKLLQGGIETGSITEMFGEFRTGKTQICHTLAVTCQLPIDRGGGEGKAMYIDTEGTFRPERLLAVAERYGLSGSDVLDNVAYARAFNTDHQTQLLYQASAMMVESRYALLIVDSATALYRTDYSGRGELSARQMHLARFLRMLLRLADEFGVAVVITNQVVAQVDGAAMFAADPKKPIGGNIIAHASTTRLYLRKGRGETRICKIYDSPCLPEAEAMFAINADGVGDAKD

> <PDB ID(s) of Target Chain>
1N0W,5JZC,5NP7,5NWL,8BQ2,8BR2,8BSC

> <UniProt (SwissProt) Recommended Name of Target Chain>
DNA repair protein RAD51 homolog 1

> <UniProt (SwissProt) Entry Name of Target Chain>
RAD51_HUMAN

> <UniProt (SwissProt) Primary ID of Target Chain>
Q06609

> <UniProt (SwissProt) Secondary ID(s) of Target Chain>
B0FXP0 B2R8T6 Q6FHX9 Q6ZNA8 Q9BV60

> <UniProt (SwissProt) Alternative ID(s) of Target Chain>


> <UniProt (TrEMBL) Submitted Name of Target Chain>


> <UniProt (TrEMBL) Entry Name of Target Chain>


> <UniProt (TrEMBL) Primary ID of Target Chain>


> <UniProt (TrEMBL) Secondary ID(s) of Target Chain>


> <UniProt (TrEMBL) Alternative ID(s) of Target Chain>


$$$$
665662
  Mrv0541 11191410422D          

 30 32  0  0  0  0            999 V2000
    4.4934    3.3382    0.0000 O   0  0  0  0  0  0  0  0  0  0  0  0
    3.0952    3.0435    0.0000 O   0  0  0  0  0  0  0  0  0  0  0  0
    3.1617   -0.7367    0.0000 O   0  0  0  0  0  0  0  0  0  0  0  0
    5.5787   -3.9628    0.0000 O   0  0  0  0  0  0  0  0  0  0  0  0
    5.5787   -2.5339    0.0000 O   0  0  0  0  0  0  0  0  0  0  0  0
    4.3898    0.3653    0.0000 N   0  0  0  0  0  0  0  0  0  0  0  0
    4.1160   -1.8002    0.0000 N   0  0  0  0  0  0  0  0  0  0  0  0
    3.8597   -3.9123    0.0000 N   0  0  0  0  0  0  0  0  0  0  0  0
    4.0496    1.9799    0.0000 C   0  0  0  0  0  0  0  0  0  0  0  0
    4.8337    1.7236    0.0000 C   0  0  0  0  0  0  0  0  0  0  0  0
    3.4355    1.4289    0.0000 C   0  0  0  0  0  0  0  0  0  0  0  0
    3.6056    0.6217    0.0000 C   0  0  0  0  0  0  0  0  0  0  0  0
    5.0039    0.9164    0.0000 C   0  0  0  0  0  0  0  0  0  0  0  0
    4.5599   -0.4420    0.0000 C   0  0  0  0  0  0  0  0  0  0  0  0
    3.8794    2.7872    0.0000 C   0  0  0  0  0  0  0  0  0  0  0  0
    3.9458   -0.9929    0.0000 C   0  0  0  0  0  0  0  0  0  0  0  0
    3.8597   -2.5845    0.0000 C   0  0  0  0  0  0  0  0  0  0  0  0
    3.0790   -2.8359    0.0000 C   0  0  0  0  0  0  0  0  0  0  0  0
    3.0790   -3.6609    0.0000 C   0  0  0  0  0  0  0  0  0  0  0  0
    4.3412   -3.2484    0.0000 C   0  0  0  0  0  0  0  0  0  0  0  0
    2.3645   -2.4233    0.0000 C   0  0  0  0  0  0  0  0  0  0  0  0
    2.3645   -4.0734    0.0000 C   0  0  0  0  0  0  0  0  0  0  0  0
    4.3233    4.1455    0.0000 C   0  0  0  0  0  0  0  0  0  0  0  0
    4.1160   -4.6965    0.0000 C   0  0  0  0  0  0  0  0  0  0  0  0
    1.6501   -2.8359    0.0000 C   0  0  0  0  0  0  0  0  0  0  0  0
    5.1662   -3.2484    0.0000 C   0  0  0  0  0  0  0  0  0  0  0  0
    1.6501   -3.6609    0.0000 C   0  0  0  0  0  0  0  0  0  0  0  0
    1.9520   -1.7089    0.0000 C   0  0  0  0  0  0  0  0  0  0  0  0
    4.9374    4.6965    0.0000 C   0  0  0  0  0  0  0  0  0  0  0  0
    6.4038   -3.9628    0.0000 C   0  0  0  0  0  0  0  0  0  0  0  0
  1 15  1  0  0  0  0
  1 23  1  0  0  0  0
  2 15  2  0  0  0  0
  3 16  2  0  0  0  0
  4 26  1  0  0  0  0
  4 30  1  0  0  0  0
  5 26  2  0  0  0  0
  6 12  1  0  0  0  0
  6 13  1  0  0  0  0
  6 14  1  0  0  0  0
  7 16  1  0  0  0  0
  7 17  1  0  0  0  0
  8 19  1  0  0  0  0
  8 20  1  0  0  0  0
  8 24  1  0  0  0  0
  9 10  1  0  0  0  0
  9 11  1  0  0  0  0
  9 15  1  0  0  0  0
 10 13  1  0  0  0  0
 11 12  1  0  0  0  0
 14 16  1  0  0  0  0
 17 18  1  0  0  0  0
 17 20  2  0  0  0  0
 18 19  1  0  0  0  0
 18 21  2  0  0  0  0
 19 22  2  0  0  0  0
 20 26  1  0  0  0  0
 21 25  1  0  0  0  0
 21 28  1  0  0  0  0
 22 27  1  0  0  0  0
 23 29  1  0  0  0  0
 25 27  2  0  0  0  0
M  END
> <From>
www.bindingDB.org

> <BindingDB Reactant_set_id>
108158

> <Ligand InChI>
InChI=1S/C22H29N3O5/c1-5-30-21(27)15-9-11-25(12-10-15)13-17(26)23-19-18-14(2)7-6-8-16(18)24(3)20(19)22(28)29-4/h6-8,15H,5,9-13H2,1-4H3,(H,23,26)

> <Ligand InChI Key>
HEVVJHICERUQDY-UHFFFAOYSA-N

> <BindingDB MonomerID>
56838

> <BindingDB Ligand Name>
3-[[2-(4-carbethoxypiperidino)acetyl]amino]-1,4-dimethyl-indole-2-carboxylic acid methyl ester::3-[[2-(4-ethoxycarbonyl-1-piperidinyl)-1-oxoethyl]amino]-1,4-dimethyl-2-indolecarboxylic acid methyl ester::MLS000042000::SMR000046840::cid_665662::methyl 3-[2-(4-ethoxycarbonylpiperidin-1-yl)ethanoylamino]-1,4-dimethyl-indole-2-carboxylate::methyl 3-[[2-(4-ethoxycarbonylpiperidin-1-yl)acetyl]amino]-1,4-dimethylindole-2-carboxylate

> <Target Name>
DNA repair protein RAD51 homolog 1

> <Target Source Organism According to Curator or DataSource>
Homo sapiens

> <Ki (nM)>


> <IC50 (nM)>
 85000

> <Kd (nM)>


> <EC50 (nM)>


> <kon (M-1-s-1)>


> <koff (s-1)>


> <pH>


> <Temp C>


> <Curation/DataSource>
PubChem

> <Article DOI>


> <BindingDB Entry DOI>
10.7270/Q2BV7F1T

> <PMID>


> <PubChem AID>
aid1435

> <Patent Number>


> <Authors>
PubChem, PC

> <Date of publication>
11/21/2008

> <Date in BindingDB>
6/8/2011

> <Institution>
PCMD

> <Link to Ligand in BindingDB>
http://www.bindingdb.org/bind/chemsearch/marvin/MolStructure.jsp?monomerid=56838

> <Link to Ligand-Target Pair in BindingDB>
http://www.bindingdb.org/jsp/dbsearch/PrimarySearch_ki.jsp?energyterm=kJ/mole&tag=pol&polymerid=4676&target=DNA+repair+protein+RAD51+homolog+1&column=ki&startPg=0&Increment=50&submit=Search

> <Link to Ligand-Target Pair in BindingDB>
http://www.bindingdb.org/jsp/dbsearch/PrimarySearch_ki.jsp?energyterm=kJ/mole&tag=r21&monomerid=56838&enzyme=DNA+repair+protein+RAD51+homolog+1&column=ki&startPg=0&Increment=50&submit=Search

> <Ligand HET ID in PDB>


> <PDB ID(s) for Ligand-Target Complex>


> <PubChem CID of Ligand>
665662

> <PubChem SID of Ligand>
252636793

> <ChEBI ID of Ligand>


> <ChEMBL ID of Ligand>


> <DrugBank ID of Ligand>


> <IUPHAR_GRAC ID of Ligand>


> <KEGG ID of Ligand>


> <ZINC ID of Ligand>
ZINC04295482

> <Number of Protein Chains in Target (bigger than 1 implies a multichain complex)>
1

> <BindingDB Target Chain Sequence>
MAMQMQLEANADTSVEEESFGPQPISRLEQCGINANDVKKLEEAGFHTVEAVAYAPKKELINIKGISEAKADKILAEAAKLVPMGFTTATEFHQRRSEIIQITTGSKELDKLLQGGIETGSITEMFGEFRTGKTQICHTLAVTCQLPIDRGGGEGKAMYIDTEGTFRPERLLAVAERYGLSGSDVLDNVAYARAFNTDHQTQLLYQASAMMVESRYALLIVDSATALYRTDYSGRGELSARQMHLARFLRMLLRLADEFGVAVVITNQVVAQVDGAAMFAADPKKPIGGNIIAHASTTRLYLRKGRGETRICKIYDSPCLPEAEAMFAINADGVGDAKD

> <PDB ID(s) of Target Chain>
1N0W,5JZC,5NP7,5NWL,8BQ2,8BR2,8BSC

> <UniProt (SwissProt) Recommended Name of Target Chain>
DNA repair protein RAD51 homolog 1

> <UniProt (SwissProt) Entry Name of Target Chain>
RAD51_HUMAN

> <UniProt (SwissProt) Primary ID of Target Chain>
Q06609

> <UniProt (SwissProt) Secondary ID(s) of Target Chain>
B0FXP0 B2R8T6 Q6FHX9 Q6ZNA8 Q9BV60

> <UniProt (SwissProt) Alternative ID(s) of Target Chain>


> <UniProt (TrEMBL) Submitted Name of Target Chain>


> <UniProt (TrEMBL) Entry Name of Target Chain>


> <UniProt (TrEMBL) Primary ID of Target Chain>


> <UniProt (TrEMBL) Secondary ID(s) of Target Chain>


> <UniProt (TrEMBL) Alternative ID(s) of Target Chain>


$$$$
2999923
  Mrv0541 11191410422D          

 20 22  0  0  1  0            999 V2000
    7.6367   -0.8719    0.0000 S   0  0  0  0  0  0  0  0  0  0  0  0
    4.1159   -0.8048    0.0000 O   0  0  0  0  0  0  0  0  0  0  0  0
    4.1159    2.0914    0.0000 O   0  0  0  0  0  0  0  0  0  0  0  0
    5.1662   -0.7857    0.0000 O   0  0  0  0  0  0  0  0  0  0  0  0
    4.3412    0.6433    0.0000 N   0  0  0  0  0  0  0  0  0  0  0  0
    6.4037   -0.0712    0.0000 N   0  0  0  0  0  0  0  0  0  0  0  0
    6.4806   -1.5394    0.0000 N   0  0  0  0  0  0  0  0  0  0  0  0
    3.0790    1.0558    0.0000 C   0  0  0  0  0  0  0  0  0  0  0  0
    3.0790    0.2308    0.0000 C   0  0  0  0  0  0  0  0  0  0  0  0
    2.3645    1.4683    0.0000 C   0  0  0  0  0  0  0  0  0  0  0  0
    2.3645   -0.1818    0.0000 C   0  0  0  0  0  0  0  0  0  0  0  0
    3.8597   -0.0206    0.0000 C   0  0  0  0  0  0  0  0  0  0  0  0
    3.8597    1.3072    0.0000 C   0  0  0  0  0  0  0  0  0  0  0  0
    1.6500    0.2308    0.0000 C   0  0  0  0  0  0  0  0  0  0  0  0
    1.6500    1.0558    0.0000 C   0  0  0  0  0  0  0  0  0  0  0  0
    5.1662    0.6433    0.0000 C   0  0  0  0  0  0  0  0  0  0  0  0
    5.5787   -0.0712    0.0000 C   0  0  0  0  0  0  0  0  0  0  0  0
    6.8162   -0.7857    0.0000 C   0  0  0  0  0  0  0  0  0  0  0  0
    7.8082   -1.6789    0.0000 C   0  0  0  0  0  0  0  0  0  0  0  0
    7.0938   -2.0914    0.0000 C   0  0  0  0  0  0  0  0  0  0  0  0
  1 18  1  0  0  0  0
  1 19  1  0  0  0  0
  2 12  2  0  0  0  0
  3 13  2  0  0  0  0
  4 17  2  0  0  0  0
  5 12  1  0  0  0  0
  5 13  1  0  0  0  0
  5 16  1  0  0  0  0
  6 17  1  0  0  0  0
  6 18  1  0  0  0  0
  7 18  2  0  0  0  0
  7 20  1  0  0  0  0
  8  9  1  0  0  0  0
  8 10  1  0  0  0  0
  8 13  1  0  0  0  0
  9 11  1  0  0  0  0
  9 12  1  0  0  0  0
 10 15  1  0  0  0  0
 11 14  1  0  0  0  0
 14 15  2  0  0  0  0
 16 17  1  0  0  0  0
 19 20  2  0  0  0  0
M  END
> <From>
www.bindingDB.org

> <BindingDB Reactant_set_id>
108159

> <Ligand InChI>
InChI=1S/C13H13N3O3S/c17-10(15-13-14-5-6-20-13)7-16-11(18)8-3-1-2-4-9(8)12(16)19/h1-2,5-6,8-9H,3-4,7H2,(H,14,15,17)

> <Ligand InChI Key>
MVYXNBJDHAWJOE-UHFFFAOYSA-N

> <BindingDB MonomerID>
56839

> <BindingDB Ligand Name>
2-(1,3-diketo-3a,4,7,7a-tetrahydroisoindol-2-yl)-N-thiazol-2-yl-acetamide::2-(1,3-dioxo-3a,4,7,7a-tetrahydroisoindol-2-yl)-N-(1,3-thiazol-2-yl)acetamide::2-(1,3-dioxo-3a,4,7,7a-tetrahydroisoindol-2-yl)-N-(2-thiazolyl)acetamide::2-[1,3-bis(oxidanylidene)-3a,4,7,7a-tetrahydroisoindol-2-yl]-N-(1,3-thiazol-2-yl)ethanamide::MLS000054855::SMR000066792::cid_2999923

> <Target Name>
DNA repair protein RAD51 homolog 1

> <Target Source Organism According to Curator or DataSource>
Homo sapiens

> <Ki (nM)>


> <IC50 (nM)>
 42500

> <Kd (nM)>


> <EC50 (nM)>


> <kon (M-1-s-1)>


> <koff (s-1)>


> <pH>


> <Temp C>


> <Curation/DataSource>
PubChem

> <Article DOI>


> <BindingDB Entry DOI>
10.7270/Q2BV7F1T

> <PMID>


> <PubChem AID>
aid1435

> <Patent Number>


> <Authors>
PubChem, PC

> <Date of publication>
11/21/2008

> <Date in BindingDB>
6/8/2011

> <Institution>
PCMD

> <Link to Ligand in BindingDB>
http://www.bindingdb.org/bind/chemsearch/marvin/MolStructure.jsp?monomerid=56839

> <Link to Ligand-Target Pair in BindingDB>
http://www.bindingdb.org/jsp/dbsearch/PrimarySearch_ki.jsp?energyterm=kJ/mole&tag=pol&polymerid=4676&target=DNA+repair+protein+RAD51+homolog+1&column=ki&startPg=0&Increment=50&submit=Search

> <Link to Ligand-Target Pair in BindingDB>
http://www.bindingdb.org/jsp/dbsearch/PrimarySearch_ki.jsp?energyterm=kJ/mole&tag=r21&monomerid=56839&enzyme=DNA+repair+protein+RAD51+homolog+1&column=ki&startPg=0&Increment=50&submit=Search

> <Ligand HET ID in PDB>


> <PDB ID(s) for Ligand-Target Complex>


> <PubChem CID of Ligand>
2999923

> <PubChem SID of Ligand>
252636794

> <ChEBI ID of Ligand>


> <ChEMBL ID of Ligand>


> <DrugBank ID of Ligand>


> <IUPHAR_GRAC ID of Ligand>


> <KEGG ID of Ligand>


> <ZINC ID of Ligand>
ZINC12528878

> <Number of Protein Chains in Target (bigger than 1 implies a multichain complex)>
1

> <BindingDB Target Chain Sequence>
MAMQMQLEANADTSVEEESFGPQPISRLEQCGINANDVKKLEEAGFHTVEAVAYAPKKELINIKGISEAKADKILAEAAKLVPMGFTTATEFHQRRSEIIQITTGSKELDKLLQGGIETGSITEMFGEFRTGKTQICHTLAVTCQLPIDRGGGEGKAMYIDTEGTFRPERLLAVAERYGLSGSDVLDNVAYARAFNTDHQTQLLYQASAMMVESRYALLIVDSATALYRTDYSGRGELSARQMHLARFLRMLLRLADEFGVAVVITNQVVAQVDGAAMFAADPKKPIGGNIIAHASTTRLYLRKGRGETRICKIYDSPCLPEAEAMFAINADGVGDAKD

> <PDB ID(s) of Target Chain>
1N0W,5JZC,5NP7,5NWL,8BQ2,8BR2,8BSC

> <UniProt (SwissProt) Recommended Name of Target Chain>
DNA repair protein RAD51 homolog 1

> <UniProt (SwissProt) Entry Name of Target Chain>
RAD51_HUMAN

> <UniProt (SwissProt) Primary ID of Target Chain>
Q06609

> <UniProt (SwissProt) Secondary ID(s) of Target Chain>
B0FXP0 B2R8T6 Q6FHX9 Q6ZNA8 Q9BV60

> <UniProt (SwissProt) Alternative ID(s) of Target Chain>


> <UniProt (TrEMBL) Submitted Name of Target Chain>


> <UniProt (TrEMBL) Entry Name of Target Chain>


> <UniProt (TrEMBL) Primary ID of Target Chain>


> <UniProt (TrEMBL) Secondary ID(s) of Target Chain>


> <UniProt (TrEMBL) Alternative ID(s) of Target Chain>


$$$$
3236736
  Mrv0541 11191410422D          

 15 16  0  0  1  0            999 V2000
    2.1731    0.6683    0.0000 O   0  0  0  0  0  0  0  0  0  0  0  0
    3.6020    1.4933    0.0000 O   0  0  0  0  0  0  0  0  0  0  0  0
    3.6020   -0.9818    0.0000 N   0  0  0  0  0  0  0  0  0  0  0  0
    2.8875    0.2558    0.0000 N   0  0  0  0  0  0  0  0  0  0  0  0
    2.8875   -0.5693    0.0000 C   0  0  0  0  0  0  0  0  0  0  0  0
    2.0625   -0.5693    0.0000 C   0  0  0  0  0  0  0  0  0  0  0  0
    2.4750   -1.2837    0.0000 C   0  0  0  0  0  0  0  0  0  0  0  0
    4.3164   -0.5693    0.0000 C   0  0  0  0  0  0  0  0  0  0  0  0
    4.3164    0.2558    0.0000 C   0  0  0  0  0  0  0  0  0  0  0  0
    3.6020    0.6683    0.0000 C   0  0  0  0  0  0  0  0  0  0  0  0
    1.6500   -1.2837    0.0000 C   0  0  0  0  0  0  0  0  0  0  0  0
    5.0540   -1.0104    0.0000 C   0  0  0  0  0  0  0  0  0  0  0  0
    5.0540    0.6969    0.0000 C   0  0  0  0  0  0  0  0  0  0  0  0
    5.8015   -0.5864    0.0000 C   0  0  0  0  0  0  0  0  0  0  0  0
    5.8015    0.2729    0.0000 C   0  0  0  0  0  0  0  0  0  0  0  0
  1  4  1  0  0  0  0
  2 10  2  0  0  0  0
  3  5  1  0  0  0  0
  3  8  1  0  0  0  0
  4  5  1  0  0  0  0
  4 10  1  0  0  0  0
  5  6  1  0  0  0  0
  5  7  1  0  0  0  0
  6 11  1  0  0  0  0
  8  9  2  0  0  0  0
  8 12  1  0  0  0  0
  9 10  1  0  0  0  0
  9 13  1  0  0  0  0
 12 14  2  0  0  0  0
 13 15  2  0  0  0  0
 14 15  1  0  0  0  0
M  END
> <From>
www.bindingDB.org

> <BindingDB Reactant_set_id>
108160

> <Ligand InChI>
InChI=1S/C11H14N2O2/c1-3-11(2)12-9-7-5-4-6-8(9)10(14)13(11)15/h4-7,12,15H,3H2,1-2H3

> <Ligand InChI Key>
ZKCIKWRVEIMWLY-UHFFFAOYSA-N

> <BindingDB MonomerID>
56840

> <BindingDB Ligand Name>
2-ethyl-2-methyl-3-oxidanyl-1H-quinazolin-4-one::2-ethyl-3-hydroxy-2-methyl-1H-quinazolin-4-one::2-ethyl-3-hydroxy-2-methyl-2,3-dihydroquinazolin-4(1H)-one::MLS000090183::SMR000024795::cid_3236736

> <Target Name>
DNA repair protein RAD51 homolog 1

> <Target Source Organism According to Curator or DataSource>
Homo sapiens

> <Ki (nM)>


> <IC50 (nM)>
 85000

> <Kd (nM)>


> <EC50 (nM)>


> <kon (M-1-s-1)>


> <koff (s-1)>


> <pH>


> <Temp C>


> <Curation/DataSource>
PubChem

> <Article DOI>


> <BindingDB Entry DOI>
10.7270/Q2BV7F1T

> <PMID>


> <PubChem AID>
aid1435

> <Patent Number>


> <Authors>
PubChem, PC

> <Date of publication>
11/21/2008

> <Date in BindingDB>
6/8/2011

> <Institution>
PCMD

> <Link to Ligand in BindingDB>
http://www.bindingdb.org/bind/chemsearch/marvin/MolStructure.jsp?monomerid=56840

> <Link to Ligand-Target Pair in BindingDB>
http://www.bindingdb.org/jsp/dbsearch/PrimarySearch_ki.jsp?energyterm=kJ/mole&tag=pol&polymerid=4676&target=DNA+repair+protein+RAD51+homolog+1&column=ki&startPg=0&Increment=50&submit=Search

> <Link to Ligand-Target Pair in BindingDB>
http://www.bindingdb.org/jsp/dbsearch/PrimarySearch_ki.jsp?energyterm=kJ/mole&tag=r21&monomerid=56840&enzyme=DNA+repair+protein+RAD51+homolog+1&column=ki&startPg=0&Increment=50&submit=Search

> <Ligand HET ID in PDB>


> <PDB ID(s) for Ligand-Target Complex>


> <PubChem CID of Ligand>
3236736

> <PubChem SID of Ligand>
252636795

> <ChEBI ID of Ligand>


> <ChEMBL ID of Ligand>


> <DrugBank ID of Ligand>


> <IUPHAR_GRAC ID of Ligand>


> <KEGG ID of Ligand>


> <ZINC ID of Ligand>
ZINC00196136

> <Number of Protein Chains in Target (bigger than 1 implies a multichain complex)>
1

> <BindingDB Target Chain Sequence>
MAMQMQLEANADTSVEEESFGPQPISRLEQCGINANDVKKLEEAGFHTVEAVAYAPKKELINIKGISEAKADKILAEAAKLVPMGFTTATEFHQRRSEIIQITTGSKELDKLLQGGIETGSITEMFGEFRTGKTQICHTLAVTCQLPIDRGGGEGKAMYIDTEGTFRPERLLAVAERYGLSGSDVLDNVAYARAFNTDHQTQLLYQASAMMVESRYALLIVDSATALYRTDYSGRGELSARQMHLARFLRMLLRLADEFGVAVVITNQVVAQVDGAAMFAADPKKPIGGNIIAHASTTRLYLRKGRGETRICKIYDSPCLPEAEAMFAINADGVGDAKD

> <PDB ID(s) of Target Chain>
1N0W,5JZC,5NP7,5NWL,8BQ2,8BR2,8BSC

> <UniProt (SwissProt) Recommended Name of Target Chain>
DNA repair protein RAD51 homolog 1

> <UniProt (SwissProt) Entry Name of Target Chain>
RAD51_HUMAN

> <UniProt (SwissProt) Primary ID of Target Chain>
Q06609

> <UniProt (SwissProt) Secondary ID(s) of Target Chain>
B0FXP0 B2R8T6 Q6FHX9 Q6ZNA8 Q9BV60

> <UniProt (SwissProt) Alternative ID(s) of Target Chain>


> <UniProt (TrEMBL) Submitted Name of Target Chain>


> <UniProt (TrEMBL) Entry Name of Target Chain>


> <UniProt (TrEMBL) Primary ID of Target Chain>


> <UniProt (TrEMBL) Secondary ID(s) of Target Chain>


> <UniProt (TrEMBL) Alternative ID(s) of Target Chain>


$$$$
3237774
  Mrv0541 11191410422D          

 29 31  0  0  0  0            999 V2000
    6.8162   -0.3668    0.0000 S   0  0  0  0  0  0  0  0  0  0  0  0
    3.8597    0.3982    0.0000 S   0  0  0  0  0  0  0  0  0  0  0  0
   11.7663   -1.7958    0.0000 O   0  0  0  0  0  0  0  0  0  0  0  0
    7.6412   -1.7958    0.0000 O   0  0  0  0  0  0  0  0  0  0  0  0
   11.7663   -0.3668    0.0000 O   0  0  0  0  0  0  0  0  0  0  0  0
    5.1662   -0.3668    0.0000 O   0  0  0  0  0  0  0  0  0  0  0  0
    8.8788   -1.0813    0.0000 N   0  0  0  0  0  0  0  0  0  0  0  0
   10.5288   -1.0813    0.0000 N   0  0  0  0  0  0  0  0  0  0  0  0
    3.8597    1.7261    0.0000 N   0  0  0  0  0  0  0  0  0  0  0  0
    5.1662    1.0621    0.0000 N   0  0  0  0  0  0  0  0  0  0  0  0
    9.2913   -0.3668    0.0000 C   0  0  0  0  0  0  0  0  0  0  0  0
    9.2913   -1.7958    0.0000 C   0  0  0  0  0  0  0  0  0  0  0  0
   10.1163   -1.7958    0.0000 C   0  0  0  0  0  0  0  0  0  0  0  0
   10.1163   -0.3668    0.0000 C   0  0  0  0  0  0  0  0  0  0  0  0
    8.0537   -1.0813    0.0000 C   0  0  0  0  0  0  0  0  0  0  0  0
   11.3538   -1.0813    0.0000 C   0  0  0  0  0  0  0  0  0  0  0  0
    7.6412   -0.3668    0.0000 C   0  0  0  0  0  0  0  0  0  0  0  0
   12.5913   -1.7958    0.0000 C   0  0  0  0  0  0  0  0  0  0  0  0
    3.0790    1.4746    0.0000 C   0  0  0  0  0  0  0  0  0  0  0  0
    6.4037    0.3477    0.0000 C   0  0  0  0  0  0  0  0  0  0  0  0
    3.0790    0.6496    0.0000 C   0  0  0  0  0  0  0  0  0  0  0  0
    4.3412    1.0621    0.0000 C   0  0  0  0  0  0  0  0  0  0  0  0
    2.3645    1.8871    0.0000 C   0  0  0  0  0  0  0  0  0  0  0  0
    5.5787    0.3477    0.0000 C   0  0  0  0  0  0  0  0  0  0  0  0
    4.1159    2.5103    0.0000 C   0  0  0  0  0  0  0  0  0  0  0  0
   13.0039   -2.5103    0.0000 C   0  0  0  0  0  0  0  0  0  0  0  0
    2.3645    0.2371    0.0000 C   0  0  0  0  0  0  0  0  0  0  0  0
    1.6500    1.4746    0.0000 C   0  0  0  0  0  0  0  0  0  0  0  0
    1.6500    0.6496    0.0000 C   0  0  0  0  0  0  0  0  0  0  0  0
  1 17  1  0  0  0  0
  1 20  1  0  0  0  0
  2 21  1  0  0  0  0
  2 22  1  0  0  0  0
  3 16  1  0  0  0  0
  3 18  1  0  0  0  0
  4 15  2  0  0  0  0
  5 16  2  0  0  0  0
  6 24  2  0  0  0  0
  7 11  1  0  0  0  0
  7 12  1  0  0  0  0
  7 15  1  0  0  0  0
  8 13  1  0  0  0  0
  8 14  1  0  0  0  0
  8 16  1  0  0  0  0
  9 19  1  0  0  0  0
  9 22  1  0  0  0  0
  9 25  1  0  0  0  0
 10 22  2  0  0  0  0
 10 24  1  4  0  0  0
 11 14  1  0  0  0  0
 12 13  1  0  0  0  0
 15 17  1  0  0  0  0
 18 26  1  0  0  0  0
 19 21  1  0  0  0  0
 19 23  2  0  0  0  0
 20 24  1  0  0  0  0
 21 27  2  0  0  0  0
 23 28  1  0  0  0  0
 27 29  1  0  0  0  0
 28 29  2  0  0  0  0
M  END
> <From>
www.bindingDB.org

> <BindingDB Reactant_set_id>
108161

> <Ligand InChI>
InChI=1S/C19H24N4O4S2/c1-3-27-19(26)23-10-8-22(9-11-23)17(25)13-28-12-16(24)20-18-21(2)14-6-4-5-7-15(14)29-18/h4-7H,3,8-13H2,1-2H3

> <Ligand InChI Key>
IPPICVQUJGDJOR-UHFFFAOYSA-N

> <BindingDB MonomerID>
56841

> <BindingDB Ligand Name>
4-[2-[[2-[(3-methyl-1,3-benzothiazol-2-ylidene)amino]-2-oxoethyl]thio]-1-oxoethyl]-1-piperazinecarboxylic acid ethyl ester::4-[2-[[2-keto-2-[(3-methyl-1,3-benzothiazol-2-ylidene)amino]ethyl]thio]acetyl]piperazine-1-carboxylic acid ethyl ester::MLS000091398::SMR000025954::cid_3237774::ethyl 4-[2-[2-[(3-methyl-1,3-benzothiazol-2-ylidene)amino]-2-oxidanylidene-ethyl]sulfanylethanoyl]piperazine-1-carboxylate::ethyl 4-[2-[2-[(3-methyl-1,3-benzothiazol-2-ylidene)amino]-2-oxoethyl]sulfanylacetyl]piperazine-1-carboxylate::ethyl 4-{[(2-{[(2Z)-3-methyl-1,3-benzothiazol-2(3H)-ylidene]amino}-2-oxoethyl)thio]acetyl}piperazine-1-carboxylate

> <Target Name>
DNA repair protein RAD51 homolog 1

> <Target Source Organism According to Curator or DataSource>
Homo sapiens

> <Ki (nM)>


> <IC50 (nM)>
 42500

> <Kd (nM)>


> <EC50 (nM)>


> <kon (M-1-s-1)>


> <koff (s-1)>


> <pH>


> <Temp C>


> <Curation/DataSource>
PubChem

> <Article DOI>


> <BindingDB Entry DOI>
10.7270/Q2BV7F1T

> <PMID>


> <PubChem AID>
aid1435

> <Patent Number>


> <Authors>
PubChem, PC

> <Date of publication>
11/21/2008

> <Date in BindingDB>
6/8/2011

> <Institution>
PCMD

> <Link to Ligand in BindingDB>
http://www.bindingdb.org/bind/chemsearch/marvin/MolStructure.jsp?monomerid=56841

> <Link to Ligand-Target Pair in BindingDB>
http://www.bindingdb.org/jsp/dbsearch/PrimarySearch_ki.jsp?energyterm=kJ/mole&tag=pol&polymerid=4676&target=DNA+repair+protein+RAD51+homolog+1&column=ki&startPg=0&Increment=50&submit=Search

> <Link to Ligand-Target Pair in BindingDB>
http://www.bindingdb.org/jsp/dbsearch/PrimarySearch_ki.jsp?energyterm=kJ/mole&tag=r21&monomerid=56841&enzyme=DNA+repair+protein+RAD51+homolog+1&column=ki&startPg=0&Increment=50&submit=Search

> <Ligand HET ID in PDB>


> <PDB ID(s) for Ligand-Target Complex>


> <PubChem CID of Ligand>
3237774

> <PubChem SID of Ligand>
252636796

> <ChEBI ID of Ligand>


> <ChEMBL ID of Ligand>


> <DrugBank ID of Ligand>


> <IUPHAR_GRAC ID of Ligand>


> <KEGG ID of Ligand>


> <ZINC ID of Ligand>
ZINC13147531

> <Number of Protein Chains in Target (bigger than 1 implies a multichain complex)>
1

> <BindingDB Target Chain Sequence>
MAMQMQLEANADTSVEEESFGPQPISRLEQCGINANDVKKLEEAGFHTVEAVAYAPKKELINIKGISEAKADKILAEAAKLVPMGFTTATEFHQRRSEIIQITTGSKELDKLLQGGIETGSITEMFGEFRTGKTQICHTLAVTCQLPIDRGGGEGKAMYIDTEGTFRPERLLAVAERYGLSGSDVLDNVAYARAFNTDHQTQLLYQASAMMVESRYALLIVDSATALYRTDYSGRGELSARQMHLARFLRMLLRLADEFGVAVVITNQVVAQVDGAAMFAADPKKPIGGNIIAHASTTRLYLRKGRGETRICKIYDSPCLPEAEAMFAINADGVGDAKD

> <PDB ID(s) of Target Chain>
1N0W,5JZC,5NP7,5NWL,8BQ2,8BR2,8BSC

> <UniProt (SwissProt) Recommended Name of Target Chain>
DNA repair protein RAD51 homolog 1

> <UniProt (SwissProt) Entry Name of Target Chain>
RAD51_HUMAN

> <UniProt (SwissProt) Primary ID of Target Chain>
Q06609

> <UniProt (SwissProt) Secondary ID(s) of Target Chain>
B0FXP0 B2R8T6 Q6FHX9 Q6ZNA8 Q9BV60

> <UniProt (SwissProt) Alternative ID(s) of Target Chain>


> <UniProt (TrEMBL) Submitted Name of Target Chain>


> <UniProt (TrEMBL) Entry Name of Target Chain>


> <UniProt (TrEMBL) Primary ID of Target Chain>


> <UniProt (TrEMBL) Secondary ID(s) of Target Chain>


> <UniProt (TrEMBL) Alternative ID(s) of Target Chain>


$$$$
2155832
  Mrv0541 11191410422D          

 25 28  0  0  0  0            999 V2000
    5.1795    0.8739    0.0000 S   0  0  0  0  0  0  0  0  0  0  0  0
    3.5650    0.5336    0.0000 O   0  0  0  0  0  0  0  0  0  0  0  0
    6.5990    0.4910    0.0000 O   0  0  0  0  0  0  0  0  0  0  0  0
    3.8597   -0.8646    0.0000 N   0  0  0  0  0  0  0  0  0  0  0  0
    6.3237    1.7971    0.0000 N   0  0  0  0  0  0  0  0  0  0  0  0
    7.1441    1.7095    0.0000 N   0  0  0  0  0  0  0  0  0  0  0  0
    3.8597   -2.1925    0.0000 C   0  0  0  0  0  0  0  0  0  0  0  0
    4.3412   -1.5285    0.0000 C   0  0  0  0  0  0  0  0  0  0  0  0
    3.0790   -1.9410    0.0000 C   0  0  0  0  0  0  0  0  0  0  0  0
    3.0790   -1.1160    0.0000 C   0  0  0  0  0  0  0  0  0  0  0  0
    2.3645   -2.3535    0.0000 C   0  0  0  0  0  0  0  0  0  0  0  0
    2.3645   -0.7035    0.0000 C   0  0  0  0  0  0  0  0  0  0  0  0
    4.1159   -0.0804    0.0000 C   0  0  0  0  0  0  0  0  0  0  0  0
    1.6500   -1.9410    0.0000 C   0  0  0  0  0  0  0  0  0  0  0  0
    1.6500   -1.1160    0.0000 C   0  0  0  0  0  0  0  0  0  0  0  0
    4.9232    0.0897    0.0000 C   0  0  0  0  0  0  0  0  0  0  0  0
    8.0673    0.5654    0.0000 C   0  0  0  0  0  0  0  0  0  0  0  0
    8.7356    1.0491    0.0000 C   0  0  0  0  0  0  0  0  0  0  0  0
    5.9868    1.0441    0.0000 C   0  0  0  0  0  0  0  0  0  0  0  0
    7.3142    0.9022    0.0000 C   0  0  0  0  0  0  0  0  0  0  0  0
    9.4887    0.7122    0.0000 C   0  0  0  0  0  0  0  0  0  0  0  0
    8.6507    1.8697    0.0000 C   0  0  0  0  0  0  0  0  0  0  0  0
   10.1570    1.1960    0.0000 C   0  0  0  0  0  0  0  0  0  0  0  0
    9.3191    2.3535    0.0000 C   0  0  0  0  0  0  0  0  0  0  0  0
   10.0722    2.0167    0.0000 C   0  0  0  0  0  0  0  0  0  0  0  0
  1 16  1  0  0  0  0
  1 19  1  0  0  0  0
  2 13  2  0  0  0  0
  3 19  1  0  0  0  0
  3 20  1  0  0  0  0
  4  8  1  0  0  0  0
  4 10  1  0  0  0  0
  4 13  1  0  0  0  0
  5  6  1  0  0  0  0
  5 19  2  0  0  0  0
  6 20  2  0  0  0  0
  7  8  1  0  0  0  0
  7  9  1  0  0  0  0
  9 10  2  0  0  0  0
  9 11  1  0  0  0  0
 10 12  1  0  0  0  0
 11 14  2  0  0  0  0
 12 15  2  0  0  0  0
 13 16  1  0  0  0  0
 14 15  1  0  0  0  0
 17 18  1  0  0  0  0
 17 20  1  0  0  0  0
 18 21  2  0  0  0  0
 18 22  1  0  0  0  0
 21 23  1  0  0  0  0
 22 24  2  0  0  0  0
 23 25  2  0  0  0  0
 24 25  1  0  0  0  0
M  END
> <From>
www.bindingDB.org

> <BindingDB Reactant_set_id>
108162

> <Ligand InChI>
InChI=1S/C19H17N3O2S/c23-18(22-11-10-15-8-4-5-9-16(15)22)13-25-19-21-20-17(24-19)12-14-6-2-1-3-7-14/h1-9H,10-13H2

> <Ligand InChI Key>
ZQWXXLUCEFLHOY-UHFFFAOYSA-N

> <BindingDB MonomerID>
56842

> <BindingDB Ligand Name>
1-(2,3-dihydroindol-1-yl)-2-[[5-(phenylmethyl)-1,3,4-oxadiazol-2-yl]sulfanyl]ethanone::1-(2,3-dihydroindol-1-yl)-2-[[5-(phenylmethyl)-1,3,4-oxadiazol-2-yl]thio]ethanone::1-{[(5-benzyl-1,3,4-oxadiazol-2-yl)thio]acetyl}indoline::2-[(5-benzyl-1,3,4-oxadiazol-2-yl)sulfanyl]-1-(2,3-dihydroindol-1-yl)ethanone::2-[(5-benzyl-1,3,4-oxadiazol-2-yl)thio]-1-indolin-1-yl-ethanone::MLS000091199::SMR000025761::cid_2155832

> <Target Name>
DNA repair protein RAD51 homolog 1

> <Target Source Organism According to Curator or DataSource>
Homo sapiens

> <Ki (nM)>


> <IC50 (nM)>
 85000

> <Kd (nM)>


> <EC50 (nM)>


> <kon (M-1-s-1)>


> <koff (s-1)>


> <pH>


> <Temp C>


> <Curation/DataSource>
PubChem

> <Article DOI>


> <BindingDB Entry DOI>
10.7270/Q2BV7F1T

> <PMID>


> <PubChem AID>
aid1435

> <Patent Number>


> <Authors>
PubChem, PC

> <Date of publication>
11/21/2008

> <Date in BindingDB>
6/8/2011

> <Institution>
PCMD

> <Link to Ligand in BindingDB>
http://www.bindingdb.org/bind/chemsearch/marvin/MolStructure.jsp?monomerid=56842

> <Link to Ligand-Target Pair in BindingDB>
http://www.bindingdb.org/jsp/dbsearch/PrimarySearch_ki.jsp?energyterm=kJ/mole&tag=pol&polymerid=4676&target=DNA+repair+protein+RAD51+homolog+1&column=ki&startPg=0&Increment=50&submit=Search

> <Link to Ligand-Target Pair in BindingDB>
http://www.bindingdb.org/jsp/dbsearch/PrimarySearch_ki.jsp?energyterm=kJ/mole&tag=r21&monomerid=56842&enzyme=DNA+repair+protein+RAD51+homolog+1&column=ki&startPg=0&Increment=50&submit=Search

> <Ligand HET ID in PDB>


> <PDB ID(s) for Ligand-Target Complex>


> <PubChem CID of Ligand>
2155832

> <PubChem SID of Ligand>
252636797

> <ChEBI ID of Ligand>


> <ChEMBL ID of Ligand>


> <DrugBank ID of Ligand>


> <IUPHAR_GRAC ID of Ligand>


> <KEGG ID of Ligand>


> <ZINC ID of Ligand>
ZINC02720430

> <Number of Protein Chains in Target (bigger than 1 implies a multichain complex)>
1

> <BindingDB Target Chain Sequence>
MAMQMQLEANADTSVEEESFGPQPISRLEQCGINANDVKKLEEAGFHTVEAVAYAPKKELINIKGISEAKADKILAEAAKLVPMGFTTATEFHQRRSEIIQITTGSKELDKLLQGGIETGSITEMFGEFRTGKTQICHTLAVTCQLPIDRGGGEGKAMYIDTEGTFRPERLLAVAERYGLSGSDVLDNVAYARAFNTDHQTQLLYQASAMMVESRYALLIVDSATALYRTDYSGRGELSARQMHLARFLRMLLRLADEFGVAVVITNQVVAQVDGAAMFAADPKKPIGGNIIAHASTTRLYLRKGRGETRICKIYDSPCLPEAEAMFAINADGVGDAKD

> <PDB ID(s) of Target Chain>
1N0W,5JZC,5NP7,5NWL,8BQ2,8BR2,8BSC

> <UniProt (SwissProt) Recommended Name of Target Chain>
DNA repair protein RAD51 homolog 1

> <UniProt (SwissProt) Entry Name of Target Chain>
RAD51_HUMAN

> <UniProt (SwissProt) Primary ID of Target Chain>
Q06609

> <UniProt (SwissProt) Secondary ID(s) of Target Chain>
B0FXP0 B2R8T6 Q6FHX9 Q6ZNA8 Q9BV60

> <UniProt (SwissProt) Alternative ID(s) of Target Chain>


> <UniProt (TrEMBL) Submitted Name of Target Chain>


> <UniProt (TrEMBL) Entry Name of Target Chain>


> <UniProt (TrEMBL) Primary ID of Target Chain>


> <UniProt (TrEMBL) Secondary ID(s) of Target Chain>


> <UniProt (TrEMBL) Alternative ID(s) of Target Chain>


$$$$
3244663
  Mrv0541 11191410422D          

 22 23  0  0  0  0            999 V2000
    4.5741   -0.8785    0.0000 S   0  0  0  0  0  0  0  0  0  0  0  0
    7.5307   -1.6435    0.0000 S   0  0  0  0  0  0  0  0  0  0  0  0
    1.6500   -1.0396    0.0000 F   0  0  0  0  0  0  0  0  0  0  0  0
    5.8940    2.1879    0.0000 O   0  0  0  0  0  0  0  0  0  0  0  0
    5.8806   -1.6435    0.0000 O   0  0  0  0  0  0  0  0  0  0  0  0
    8.7682   -0.9291    0.0000 O   0  0  0  0  0  0  0  0  0  0  0  0
    4.5741    0.4494    0.0000 N   0  0  0  0  0  0  0  0  0  0  0  0
    5.8806   -0.2146    0.0000 N   0  0  0  0  0  0  0  0  0  0  0  0
    3.7935    0.1979    0.0000 C   0  0  0  0  0  0  0  0  0  0  0  0
    4.8305    1.2336    0.0000 C   0  0  0  0  0  0  0  0  0  0  0  0
    3.7935   -0.6271    0.0000 C   0  0  0  0  0  0  0  0  0  0  0  0
    5.0556   -0.2146    0.0000 C   0  0  0  0  0  0  0  0  0  0  0  0
    5.6378    1.4037    0.0000 C   0  0  0  0  0  0  0  0  0  0  0  0
    3.0790    0.6104    0.0000 C   0  0  0  0  0  0  0  0  0  0  0  0
    3.0790   -1.0396    0.0000 C   0  0  0  0  0  0  0  0  0  0  0  0
    2.3645    0.1979    0.0000 C   0  0  0  0  0  0  0  0  0  0  0  0
    2.3645   -0.6271    0.0000 C   0  0  0  0  0  0  0  0  0  0  0  0
    6.2932   -0.9291    0.0000 C   0  0  0  0  0  0  0  0  0  0  0  0
    6.7013    2.3580    0.0000 C   0  0  0  0  0  0  0  0  0  0  0  0
    7.1182   -0.9291    0.0000 C   0  0  0  0  0  0  0  0  0  0  0  0
    8.3557   -1.6435    0.0000 C   0  0  0  0  0  0  0  0  0  0  0  0
    8.7682   -2.3580    0.0000 C   0  0  0  0  0  0  0  0  0  0  0  0
  1 11  1  0  0  0  0
  1 12  1  0  0  0  0
  2 20  1  0  0  0  0
  2 21  1  0  0  0  0
  3 17  1  0  0  0  0
  4 13  1  0  0  0  0
  4 19  1  0  0  0  0
  5 18  2  0  0  0  0
  6 21  2  0  0  0  0
  7  9  1  0  0  0  0
  7 10  1  0  0  0  0
  7 12  1  0  0  0  0
  8 12  2  0  0  0  0
  8 18  1  4  0  0  0
  9 11  1  0  0  0  0
  9 14  2  0  0  0  0
 10 13  1  0  0  0  0
 11 15  2  0  0  0  0
 14 16  1  0  0  0  0
 15 17  1  0  0  0  0
 16 17  2  0  0  0  0
 18 20  1  0  0  0  0
 21 22  1  0  0  0  0
M  END
> <From>
www.bindingDB.org

> <BindingDB Reactant_set_id>
108163

> <Ligand InChI>
InChI=1S/C14H15FN2O3S2/c1-9(18)21-8-13(19)16-14-17(5-6-20-2)11-4-3-10(15)7-12(11)22-14/h3-4,7H,5-6,8H2,1-2H3

> <Ligand InChI Key>
OHUXDMQVIFMYNE-UHFFFAOYSA-N

> <BindingDB MonomerID>
56843

> <BindingDB Ligand Name>
MLS000091390::S-(2-{[(2Z)-6-fluoro-3-(2-methoxyethyl)-1,3-benzothiazol-2(3H)-ylidene]amino}-2-oxoethyl) ethanethioate::S-[2-[[6-fluoranyl-3-(2-methoxyethyl)-1,3-benzothiazol-2-ylidene]amino]-2-oxidanylidene-ethyl] ethanethioate::S-[2-[[6-fluoro-3-(2-methoxyethyl)-1,3-benzothiazol-2-ylidene]amino]-2-oxoethyl] ethanethioate::SMR000025947::cid_3244663::ethanethioic acid S-[2-[[6-fluoro-3-(2-methoxyethyl)-1,3-benzothiazol-2-ylidene]amino]-2-keto-ethyl] ester::ethanethioic acid S-[2-[[6-fluoro-3-(2-methoxyethyl)-1,3-benzothiazol-2-ylidene]amino]-2-oxoethyl] ester

> <Target Name>
DNA repair protein RAD51 homolog 1

> <Target Source Organism According to Curator or DataSource>
Homo sapiens

> <Ki (nM)>


> <IC50 (nM)>
 85000

> <Kd (nM)>


> <EC50 (nM)>


> <kon (M-1-s-1)>


> <koff (s-1)>


> <pH>


> <Temp C>


> <Curation/DataSource>
PubChem

> <Article DOI>


> <BindingDB Entry DOI>
10.7270/Q2BV7F1T

> <PMID>


> <PubChem AID>
aid1435

> <Patent Number>


> <Authors>
PubChem, PC

> <Date of publication>
11/21/2008

> <Date in BindingDB>
6/8/2011

> <Institution>
PCMD

> <Link to Ligand in BindingDB>
http://www.bindingdb.org/bind/chemsearch/marvin/MolStructure.jsp?monomerid=56843

> <Link to Ligand-Target Pair in BindingDB>
http://www.bindingdb.org/jsp/dbsearch/PrimarySearch_ki.jsp?energyterm=kJ/mole&tag=pol&polymerid=4676&target=DNA+repair+protein+RAD51+homolog+1&column=ki&startPg=0&Increment=50&submit=Search

> <Link to Ligand-Target Pair in BindingDB>
http://www.bindingdb.org/jsp/dbsearch/PrimarySearch_ki.jsp?energyterm=kJ/mole&tag=r21&monomerid=56843&enzyme=DNA+repair+protein+RAD51+homolog+1&column=ki&startPg=0&Increment=50&submit=Search

> <Ligand HET ID in PDB>


> <PDB ID(s) for Ligand-Target Complex>


> <PubChem CID of Ligand>
3244663

> <PubChem SID of Ligand>
252636798

> <ChEBI ID of Ligand>


> <ChEMBL ID of Ligand>


> <DrugBank ID of Ligand>


> <IUPHAR_GRAC ID of Ligand>


> <KEGG ID of Ligand>
C04334

> <ZINC ID of Ligand>
ZINC13147287

> <Number of Protein Chains in Target (bigger than 1 implies a multichain complex)>
1

> <BindingDB Target Chain Sequence>
MAMQMQLEANADTSVEEESFGPQPISRLEQCGINANDVKKLEEAGFHTVEAVAYAPKKELINIKGISEAKADKILAEAAKLVPMGFTTATEFHQRRSEIIQITTGSKELDKLLQGGIETGSITEMFGEFRTGKTQICHTLAVTCQLPIDRGGGEGKAMYIDTEGTFRPERLLAVAERYGLSGSDVLDNVAYARAFNTDHQTQLLYQASAMMVESRYALLIVDSATALYRTDYSGRGELSARQMHLARFLRMLLRLADEFGVAVVITNQVVAQVDGAAMFAADPKKPIGGNIIAHASTTRLYLRKGRGETRICKIYDSPCLPEAEAMFAINADGVGDAKD

> <PDB ID(s) of Target Chain>
1N0W,5JZC,5NP7,5NWL,8BQ2,8BR2,8BSC

> <UniProt (SwissProt) Recommended Name of Target Chain>
DNA repair protein RAD51 homolog 1

> <UniProt (SwissProt) Entry Name of Target Chain>
RAD51_HUMAN

> <UniProt (SwissProt) Primary ID of Target Chain>
Q06609

> <UniProt (SwissProt) Secondary ID(s) of Target Chain>
B0FXP0 B2R8T6 Q6FHX9 Q6ZNA8 Q9BV60

> <UniProt (SwissProt) Alternative ID(s) of Target Chain>


> <UniProt (TrEMBL) Submitted Name of Target Chain>


> <UniProt (TrEMBL) Entry Name of Target Chain>


> <UniProt (TrEMBL) Primary ID of Target Chain>


> <UniProt (TrEMBL) Secondary ID(s) of Target Chain>


> <UniProt (TrEMBL) Alternative ID(s) of Target Chain>


$$$$
2211650
  Mrv0541 11191410422D          

 25 26  0  0  0  0            999 V2000
    3.0790    1.0313    0.0000 S   0  0  0  0  0  0  0  0  0  0  0  0
    3.9040    1.0313    0.0000 O   0  0  0  0  0  0  0  0  0  0  0  0
    2.2539    1.0313    0.0000 O   0  0  0  0  0  0  0  0  0  0  0  0
    3.0790   -2.2688    0.0000 O   0  0  0  0  0  0  0  0  0  0  0  0
    4.5080   -3.9188    0.0000 O   0  0  0  0  0  0  0  0  0  0  0  0
    3.0790   -3.9188    0.0000 O   0  0  0  0  0  0  0  0  0  0  0  0
    3.0790    1.8563    0.0000 N   0  0  0  0  0  0  0  0  0  0  0  0
    5.2224    3.0938    0.0000 C   0  0  0  0  0  0  0  0  0  0  0  0
    5.9370    3.5063    0.0000 C   0  0  0  0  0  0  0  0  0  0  0  0
    4.5080    3.5063    0.0000 C   0  0  0  0  0  0  0  0  0  0  0  0
    5.9370    4.3313    0.0000 C   0  0  0  0  0  0  0  0  0  0  0  0
    5.2224    4.7439    0.0000 C   0  0  0  0  0  0  0  0  0  0  0  0
    3.7935    3.0938    0.0000 C   0  0  0  0  0  0  0  0  0  0  0  0
    4.5080    4.3313    0.0000 C   0  0  0  0  0  0  0  0  0  0  0  0
    3.7935    2.2688    0.0000 C   0  0  0  0  0  0  0  0  0  0  0  0
    3.0790    0.2063    0.0000 C   0  0  0  0  0  0  0  0  0  0  0  0
    2.3645   -0.2063    0.0000 C   0  0  0  0  0  0  0  0  0  0  0  0
    3.7935   -0.2063    0.0000 C   0  0  0  0  0  0  0  0  0  0  0  0
    2.3645   -1.0313    0.0000 C   0  0  0  0  0  0  0  0  0  0  0  0
    3.0790   -1.4438    0.0000 C   0  0  0  0  0  0  0  0  0  0  0  0
    3.7935   -1.0313    0.0000 C   0  0  0  0  0  0  0  0  0  0  0  0
    1.6500   -1.4438    0.0000 C   0  0  0  0  0  0  0  0  0  0  0  0
    3.7935   -2.6813    0.0000 C   0  0  0  0  0  0  0  0  0  0  0  0
    3.7935   -3.5063    0.0000 C   0  0  0  0  0  0  0  0  0  0  0  0
    4.5080   -4.7439    0.0000 C   0  0  0  0  0  0  0  0  0  0  0  0
  1  2  2  0  0  0  0
  1  3  2  0  0  0  0
  1  7  1  0  0  0  0
  1 16  1  0  0  0  0
  4 20  1  0  0  0  0
  4 23  1  0  0  0  0
  5 24  1  0  0  0  0
  5 25  1  0  0  0  0
  6 24  2  0  0  0  0
  7 15  1  0  0  0  0
  8  9  1  0  0  0  0
  8 10  1  0  0  0  0
  9 11  1  0  0  0  0
 10 13  1  0  0  0  0
 10 14  2  0  0  0  0
 11 12  1  0  0  0  0
 12 14  1  0  0  0  0
 13 15  1  0  0  0  0
 16 17  2  0  0  0  0
 16 18  1  0  0  0  0
 17 19  1  0  0  0  0
 18 21  2  0  0  0  0
 19 20  2  0  0  0  0
 19 22  1  0  0  0  0
 20 21  1  0  0  0  0
 23 24  1  0  0  0  0
M  END
> <From>
www.bindingDB.org

> <BindingDB Reactant_set_id>
108164

> <Ligand InChI>
InChI=1S/C18H25NO5S/c1-14-12-16(8-9-17(14)24-13-18(20)23-2)25(21,22)19-11-10-15-6-4-3-5-7-15/h6,8-9,12,19H,3-5,7,10-11,13H2,1-2H3

> <Ligand InChI Key>
GJWFAJZZPLUEFK-UHFFFAOYSA-N

> <BindingDB MonomerID>
56844

> <BindingDB Ligand Name>
2-[4-[2-(1-cyclohexenyl)ethylsulfamoyl]-2-methylphenoxy]acetic acid methyl ester::2-[4-[2-(cyclohexen-1-yl)ethylsulfamoyl]-2-methyl-phenoxy]acetic acid methyl ester::MLS000050112::SMR000077177::cid_2211650::methyl 2-[4-[2-(cyclohexen-1-yl)ethylsulfamoyl]-2-methyl-phenoxy]ethanoate::methyl 2-[4-[2-(cyclohexen-1-yl)ethylsulfamoyl]-2-methylphenoxy]acetate::methyl [4-({[2-(1-cyclohexen-1-yl)ethyl]amino}sulfonyl)-2-methylphenoxy]acetate

> <Target Name>
DNA repair protein RAD51 homolog 1

> <Target Source Organism According to Curator or DataSource>
Homo sapiens

> <Ki (nM)>


> <IC50 (nM)>
 85000

> <Kd (nM)>


> <EC50 (nM)>


> <kon (M-1-s-1)>


> <koff (s-1)>


> <pH>


> <Temp C>


> <Curation/DataSource>
PubChem

> <Article DOI>


> <BindingDB Entry DOI>
10.7270/Q2BV7F1T

> <PMID>


> <PubChem AID>
aid1435

> <Patent Number>


> <Authors>
PubChem, PC

> <Date of publication>
11/21/2008

> <Date in BindingDB>
6/8/2011

> <Institution>
PCMD

> <Link to Ligand in BindingDB>
http://www.bindingdb.org/bind/chemsearch/marvin/MolStructure.jsp?monomerid=56844

> <Link to Ligand-Target Pair in BindingDB>
http://www.bindingdb.org/jsp/dbsearch/PrimarySearch_ki.jsp?energyterm=kJ/mole&tag=pol&polymerid=4676&target=DNA+repair+protein+RAD51+homolog+1&column=ki&startPg=0&Increment=50&submit=Search

> <Link to Ligand-Target Pair in BindingDB>
http://www.bindingdb.org/jsp/dbsearch/PrimarySearch_ki.jsp?energyterm=kJ/mole&tag=r21&monomerid=56844&enzyme=DNA+repair+protein+RAD51+homolog+1&column=ki&startPg=0&Increment=50&submit=Search

> <Ligand HET ID in PDB>


> <PDB ID(s) for Ligand-Target Complex>


> <PubChem CID of Ligand>
2211650

> <PubChem SID of Ligand>
252636799

> <ChEBI ID of Ligand>


> <ChEMBL ID of Ligand>


> <DrugBank ID of Ligand>


> <IUPHAR_GRAC ID of Ligand>


> <KEGG ID of Ligand>


> <ZINC ID of Ligand>
ZINC02858339

> <Number of Protein Chains in Target (bigger than 1 implies a multichain complex)>
1

> <BindingDB Target Chain Sequence>
MAMQMQLEANADTSVEEESFGPQPISRLEQCGINANDVKKLEEAGFHTVEAVAYAPKKELINIKGISEAKADKILAEAAKLVPMGFTTATEFHQRRSEIIQITTGSKELDKLLQGGIETGSITEMFGEFRTGKTQICHTLAVTCQLPIDRGGGEGKAMYIDTEGTFRPERLLAVAERYGLSGSDVLDNVAYARAFNTDHQTQLLYQASAMMVESRYALLIVDSATALYRTDYSGRGELSARQMHLARFLRMLLRLADEFGVAVVITNQVVAQVDGAAMFAADPKKPIGGNIIAHASTTRLYLRKGRGETRICKIYDSPCLPEAEAMFAINADGVGDAKD

> <PDB ID(s) of Target Chain>
1N0W,5JZC,5NP7,5NWL,8BQ2,8BR2,8BSC

> <UniProt (SwissProt) Recommended Name of Target Chain>
DNA repair protein RAD51 homolog 1

> <UniProt (SwissProt) Entry Name of Target Chain>
RAD51_HUMAN

> <UniProt (SwissProt) Primary ID of Target Chain>
Q06609

> <UniProt (SwissProt) Secondary ID(s) of Target Chain>
B0FXP0 B2R8T6 Q6FHX9 Q6ZNA8 Q9BV60

> <UniProt (SwissProt) Alternative ID(s) of Target Chain>


> <UniProt (TrEMBL) Submitted Name of Target Chain>


> <UniProt (TrEMBL) Entry Name of Target Chain>


> <UniProt (TrEMBL) Primary ID of Target Chain>


> <UniProt (TrEMBL) Secondary ID(s) of Target Chain>


> <UniProt (TrEMBL) Alternative ID(s) of Target Chain>


$$$$
2224088
  Mrv0541 11191410422D          

 21 23  0  0  0  0            999 V2000
    3.8597   -1.5332    0.0000 N   0  0  0  0  0  0  0  0  0  0  0  0
    5.4359    2.3174    0.0000 N   0  0  0  0  0  0  0  0  0  0  0  0
    3.0790   -0.4567    0.0000 C   0  0  0  0  0  0  0  0  0  0  0  0
    3.0790   -1.2817    0.0000 C   0  0  0  0  0  0  0  0  0  0  0  0
    3.8597   -0.2053    0.0000 C   0  0  0  0  0  0  0  0  0  0  0  0
    4.3412   -0.8692    0.0000 C   0  0  0  0  0  0  0  0  0  0  0  0
    2.3645   -0.0442    0.0000 C   0  0  0  0  0  0  0  0  0  0  0  0
    2.3645   -1.6943    0.0000 C   0  0  0  0  0  0  0  0  0  0  0  0
    4.1159    0.5788    0.0000 C   0  0  0  0  0  0  0  0  0  0  0  0
    4.1159   -2.3174    0.0000 C   0  0  0  0  0  0  0  0  0  0  0  0
    1.6500   -0.4567    0.0000 C   0  0  0  0  0  0  0  0  0  0  0  0
    1.6500   -1.2817    0.0000 C   0  0  0  0  0  0  0  0  0  0  0  0
    4.9232    0.7490    0.0000 C   0  0  0  0  0  0  0  0  0  0  0  0
    5.4742    0.1349    0.0000 C   0  0  0  0  0  0  0  0  0  0  0  0
    5.2179   -0.6493    0.0000 C   0  0  0  0  0  0  0  0  0  0  0  0
    6.2815    0.3051    0.0000 C   0  0  0  0  0  0  0  0  0  0  0  0
    6.5762   -1.0932    0.0000 C   0  0  0  0  0  0  0  0  0  0  0  0
    5.7689   -1.2634    0.0000 C   0  0  0  0  0  0  0  0  0  0  0  0
    6.8325   -0.3090    0.0000 C   0  0  0  0  0  0  0  0  0  0  0  0
    7.1272   -1.7073    0.0000 C   0  0  0  0  0  0  0  0  0  0  0  0
    5.1795    1.5332    0.0000 C   0  0  0  0  0  0  0  0  0  0  0  0
  1  4  1  0  0  0  0
  1  6  1  0  0  0  0
  1 10  1  0  0  0  0
  2 21  3  0  0  0  0
  3  4  1  0  0  0  0
  3  5  1  0  0  0  0
  3  7  2  0  0  0  0
  4  8  2  0  0  0  0
  5  6  2  0  0  0  0
  5  9  1  0  0  0  0
  7 11  1  0  0  0  0
  8 12  1  0  0  0  0
  9 13  2  0  0  0  0
 11 12  2  0  0  0  0
 13 14  1  0  0  0  0
 13 21  1  0  0  0  0
 14 15  2  0  0  0  0
 14 16  1  0  0  0  0
 15 18  1  0  0  0  0
 16 19  2  0  0  0  0
 17 18  2  0  0  0  0
 17 19  1  0  0  0  0
 17 20  1  0  0  0  0
M  END
> <From>
www.bindingDB.org

> <BindingDB Reactant_set_id>
108165

> <Ligand InChI>
InChI=1S/C19H16N2/c1-14-7-9-15(10-8-14)16(12-20)11-17-13-21(2)19-6-4-3-5-18(17)19/h3-11,13H,1-2H3/b16-11-

> <Ligand InChI Key>
BXXHBPQGHBBZDJ-WJDWOHSUSA-N

> <BindingDB MonomerID>
56845

> <BindingDB Ligand Name>
(E)-3-(1-methyl-3-indolyl)-2-(4-methylphenyl)-2-propenenitrile::(E)-3-(1-methylindol-3-yl)-2-(4-methylphenyl)prop-2-enenitrile::(E)-3-(1-methylindol-3-yl)-2-(p-tolyl)acrylonitrile::3-(1-methyl-1H-indol-3-yl)-2-(4-methylphenyl)acrylonitrile::MLS000051428::SMR000079628::cid_2224088

> <Target Name>
DNA repair protein RAD51 homolog 1

> <Target Source Organism According to Curator or DataSource>
Homo sapiens

> <Ki (nM)>


> <IC50 (nM)>
 42500

> <Kd (nM)>


> <EC50 (nM)>


> <kon (M-1-s-1)>


> <koff (s-1)>


> <pH>


> <Temp C>


> <Curation/DataSource>
PubChem

> <Article DOI>


> <BindingDB Entry DOI>
10.7270/Q2BV7F1T

> <PMID>


> <PubChem AID>
aid1435

> <Patent Number>


> <Authors>
PubChem, PC

> <Date of publication>
11/21/2008

> <Date in BindingDB>
6/8/2011

> <Institution>
PCMD

> <Link to Ligand in BindingDB>
http://www.bindingdb.org/bind/chemsearch/marvin/MolStructure.jsp?monomerid=56845

> <Link to Ligand-Target Pair in BindingDB>
http://www.bindingdb.org/jsp/dbsearch/PrimarySearch_ki.jsp?energyterm=kJ/mole&tag=pol&polymerid=4676&target=DNA+repair+protein+RAD51+homolog+1&column=ki&startPg=0&Increment=50&submit=Search

> <Link to Ligand-Target Pair in BindingDB>
http://www.bindingdb.org/jsp/dbsearch/PrimarySearch_ki.jsp?energyterm=kJ/mole&tag=r21&monomerid=56845&enzyme=DNA+repair+protein+RAD51+homolog+1&column=ki&startPg=0&Increment=50&submit=Search

> <Ligand HET ID in PDB>


> <PDB ID(s) for Ligand-Target Complex>


> <PubChem CID of Ligand>
2224088

> <PubChem SID of Ligand>
252636800

> <ChEBI ID of Ligand>


> <ChEMBL ID of Ligand>


> <DrugBank ID of Ligand>


> <IUPHAR_GRAC ID of Ligand>


> <KEGG ID of Ligand>


> <ZINC ID of Ligand>
ZINC04478320

> <Number of Protein Chains in Target (bigger than 1 implies a multichain complex)>
1

> <BindingDB Target Chain Sequence>
MAMQMQLEANADTSVEEESFGPQPISRLEQCGINANDVKKLEEAGFHTVEAVAYAPKKELINIKGISEAKADKILAEAAKLVPMGFTTATEFHQRRSEIIQITTGSKELDKLLQGGIETGSITEMFGEFRTGKTQICHTLAVTCQLPIDRGGGEGKAMYIDTEGTFRPERLLAVAERYGLSGSDVLDNVAYARAFNTDHQTQLLYQASAMMVESRYALLIVDSATALYRTDYSGRGELSARQMHLARFLRMLLRLADEFGVAVVITNQVVAQVDGAAMFAADPKKPIGGNIIAHASTTRLYLRKGRGETRICKIYDSPCLPEAEAMFAINADGVGDAKD

> <PDB ID(s) of Target Chain>
1N0W,5JZC,5NP7,5NWL,8BQ2,8BR2,8BSC

> <UniProt (SwissProt) Recommended Name of Target Chain>
DNA repair protein RAD51 homolog 1

> <UniProt (SwissProt) Entry Name of Target Chain>
RAD51_HUMAN

> <UniProt (SwissProt) Primary ID of Target Chain>
Q06609

> <UniProt (SwissProt) Secondary ID(s) of Target Chain>
B0FXP0 B2R8T6 Q6FHX9 Q6ZNA8 Q9BV60

> <UniProt (SwissProt) Alternative ID(s) of Target Chain>


> <UniProt (TrEMBL) Submitted Name of Target Chain>


> <UniProt (TrEMBL) Entry Name of Target Chain>


> <UniProt (TrEMBL) Primary ID of Target Chain>


> <UniProt (TrEMBL) Secondary ID(s) of Target Chain>


> <UniProt (TrEMBL) Alternative ID(s) of Target Chain>


$$$$
1859783
  Mrv0541 11191410422D          

 26 30  0  0  0  0            999 V2000
    8.6280   -1.8563    0.0000 O   0  0  0  0  0  0  0  0  0  0  0  0
    2.1315    1.6952    0.0000 O   0  0  0  0  0  0  0  0  0  0  0  0
    2.1315    0.3674    0.0000 O   0  0  0  0  0  0  0  0  0  0  0  0
    7.1991    0.6188    0.0000 N   0  0  0  0  0  0  0  0  0  0  0  0
    5.7701    1.4438    0.0000 N   0  0  0  0  0  0  0  0  0  0  0  0
    8.6280    0.6188    0.0000 N   0  0  0  0  0  0  0  0  0  0  0  0
    7.9136   -0.6188    0.0000 N   0  0  0  0  0  0  0  0  0  0  0  0
    7.1991    1.4438    0.0000 C   0  0  0  0  0  0  0  0  0  0  0  0
    6.4846    0.2063    0.0000 C   0  0  0  0  0  0  0  0  0  0  0  0
    6.4846    1.8563    0.0000 C   0  0  0  0  0  0  0  0  0  0  0  0
    5.7701    0.6188    0.0000 C   0  0  0  0  0  0  0  0  0  0  0  0
    9.3426    0.2063    0.0000 C   0  0  0  0  0  0  0  0  0  0  0  0
    7.9136    0.2063    0.0000 C   0  0  0  0  0  0  0  0  0  0  0  0
   10.1232    0.4576    0.0000 C   0  0  0  0  0  0  0  0  0  0  0  0
   10.6047   -0.2063    0.0000 C   0  0  0  0  0  0  0  0  0  0  0  0
    9.3426   -0.6188    0.0000 C   0  0  0  0  0  0  0  0  0  0  0  0
   10.1232   -0.8701    0.0000 C   0  0  0  0  0  0  0  0  0  0  0  0
    5.0556    1.8563    0.0000 C   0  0  0  0  0  0  0  0  0  0  0  0
    8.6280   -1.0313    0.0000 C   0  0  0  0  0  0  0  0  0  0  0  0
    4.3412    1.4438    0.0000 C   0  0  0  0  0  0  0  0  0  0  0  0
    3.6266    1.8563    0.0000 C   0  0  0  0  0  0  0  0  0  0  0  0
    4.3412    0.6188    0.0000 C   0  0  0  0  0  0  0  0  0  0  0  0
    2.9121    1.4438    0.0000 C   0  0  0  0  0  0  0  0  0  0  0  0
    2.9121    0.6188    0.0000 C   0  0  0  0  0  0  0  0  0  0  0  0
    3.6266    0.2063    0.0000 C   0  0  0  0  0  0  0  0  0  0  0  0
    1.6500    1.0313    0.0000 C   0  0  0  0  0  0  0  0  0  0  0  0
  1 19  2  0  0  0  0
  2 23  1  0  0  0  0
  2 26  1  0  0  0  0
  3 24  1  0  0  0  0
  3 26  1  0  0  0  0
  4  8  1  0  0  0  0
  4  9  1  0  0  0  0
  4 13  1  0  0  0  0
  5 10  1  0  0  0  0
  5 11  1  0  0  0  0
  5 18  1  0  0  0  0
  6 12  1  0  0  0  0
  6 13  2  0  0  0  0
  7 13  1  0  0  0  0
  7 19  1  0  0  0  0
  8 10  1  0  0  0  0
  9 11  1  0  0  0  0
 12 14  1  0  0  0  0
 12 16  2  0  0  0  0
 14 15  1  0  0  0  0
 15 17  1  0  0  0  0
 16 17  1  0  0  0  0
 16 19  1  0  0  0  0
 18 20  1  0  0  0  0
 20 21  2  0  0  0  0
 20 22  1  0  0  0  0
 21 23  1  0  0  0  0
 22 25  2  0  0  0  0
 23 24  2  0  0  0  0
 24 25  1  0  0  0  0
M  END
> <From>
www.bindingDB.org

> <BindingDB Reactant_set_id>
108166

> <Ligand InChI>
InChI=1S/C19H22N4O3/c24-18-14-2-1-3-15(14)20-19(21-18)23-8-6-22(7-9-23)11-13-4-5-16-17(10-13)26-12-25-16/h4-5,10H,1-3,6-9,11-12H2,(H,20,21,24)

> <Ligand InChI Key>
FQNDDZVCEZVXIW-UHFFFAOYSA-N

> <BindingDB MonomerID>
56846

> <BindingDB Ligand Name>
2-(4-piperonylpiperazino)-1,5,6,7-tetrahydrocyclopenta[d]pyrimidin-4-one::2-[4-(1,3-benzodioxol-5-ylmethyl)-1-piperazinyl]-1,5,6,7-tetrahydrocyclopenta[d]pyrimidin-4-one::2-[4-(1,3-benzodioxol-5-ylmethyl)-1-piperazinyl]-3,5,6,7-tetrahydro-4H-cyclopenta[d]pyrimidin-4-one::2-[4-(1,3-benzodioxol-5-ylmethyl)piperazin-1-yl]-1,5,6,7-tetrahydrocyclopenta[d]pyrimidin-4-one::MLS000100276::SMR000082319::cid_1859783

> <Target Name>
DNA repair protein RAD51 homolog 1

> <Target Source Organism According to Curator or DataSource>
Homo sapiens

> <Ki (nM)>


> <IC50 (nM)>
 85000

> <Kd (nM)>


> <EC50 (nM)>


> <kon (M-1-s-1)>


> <koff (s-1)>


> <pH>


> <Temp C>


> <Curation/DataSource>
PubChem

> <Article DOI>


> <BindingDB Entry DOI>
10.7270/Q2BV7F1T

> <PMID>


> <PubChem AID>
aid1435

> <Patent Number>


> <Authors>
PubChem, PC

> <Date of publication>
11/21/2008

> <Date in BindingDB>
6/8/2011

> <Institution>
PCMD

> <Link to Ligand in BindingDB>
http://www.bindingdb.org/bind/chemsearch/marvin/MolStructure.jsp?monomerid=56846

> <Link to Ligand-Target Pair in BindingDB>
http://www.bindingdb.org/jsp/dbsearch/PrimarySearch_ki.jsp?energyterm=kJ/mole&tag=pol&polymerid=4676&target=DNA+repair+protein+RAD51+homolog+1&column=ki&startPg=0&Increment=50&submit=Search

> <Link to Ligand-Target Pair in BindingDB>
http://www.bindingdb.org/jsp/dbsearch/PrimarySearch_ki.jsp?energyterm=kJ/mole&tag=r21&monomerid=56846&enzyme=DNA+repair+protein+RAD51+homolog+1&column=ki&startPg=0&Increment=50&submit=Search

> <Ligand HET ID in PDB>


> <PDB ID(s) for Ligand-Target Complex>


> <PubChem CID of Ligand>
1859783

> <PubChem SID of Ligand>
252636801

> <ChEBI ID of Ligand>


> <ChEMBL ID of Ligand>


> <DrugBank ID of Ligand>


> <IUPHAR_GRAC ID of Ligand>


> <KEGG ID of Ligand>


> <ZINC ID of Ligand>
ZINC19727825

> <Number of Protein Chains in Target (bigger than 1 implies a multichain complex)>
1

> <BindingDB Target Chain Sequence>
MAMQMQLEANADTSVEEESFGPQPISRLEQCGINANDVKKLEEAGFHTVEAVAYAPKKELINIKGISEAKADKILAEAAKLVPMGFTTATEFHQRRSEIIQITTGSKELDKLLQGGIETGSITEMFGEFRTGKTQICHTLAVTCQLPIDRGGGEGKAMYIDTEGTFRPERLLAVAERYGLSGSDVLDNVAYARAFNTDHQTQLLYQASAMMVESRYALLIVDSATALYRTDYSGRGELSARQMHLARFLRMLLRLADEFGVAVVITNQVVAQVDGAAMFAADPKKPIGGNIIAHASTTRLYLRKGRGETRICKIYDSPCLPEAEAMFAINADGVGDAKD

> <PDB ID(s) of Target Chain>
1N0W,5JZC,5NP7,5NWL,8BQ2,8BR2,8BSC

> <UniProt (SwissProt) Recommended Name of Target Chain>
DNA repair protein RAD51 homolog 1

> <UniProt (SwissProt) Entry Name of Target Chain>
RAD51_HUMAN

> <UniProt (SwissProt) Primary ID of Target Chain>
Q06609

> <UniProt (SwissProt) Secondary ID(s) of Target Chain>
B0FXP0 B2R8T6 Q6FHX9 Q6ZNA8 Q9BV60

> <UniProt (SwissProt) Alternative ID(s) of Target Chain>


> <UniProt (TrEMBL) Submitted Name of Target Chain>


> <UniProt (TrEMBL) Entry Name of Target Chain>


> <UniProt (TrEMBL) Primary ID of Target Chain>


> <UniProt (TrEMBL) Secondary ID(s) of Target Chain>


> <UniProt (TrEMBL) Alternative ID(s) of Target Chain>


$$$$
1246640
  Mrv0541 11191410422D          

 15 16  0  0  0  0            999 V2000
    2.6665    2.1573    0.0000 S   0  0  0  0  0  0  0  0  0  0  0  0
    3.7935   -0.3497    0.0000 O   0  0  0  0  0  0  0  0  0  0  0  0
    2.3645   -0.3497    0.0000 N   0  0  0  0  0  0  0  0  0  0  0  0
    3.0790   -2.4123    0.0000 N   0  0  0  0  0  0  0  0  0  0  0  0
    3.0790    0.8878    0.0000 C   0  0  0  0  0  0  0  0  0  0  0  0
    3.7465    1.3727    0.0000 C   0  0  0  0  0  0  0  0  0  0  0  0
    3.4915    2.1573    0.0000 C   0  0  0  0  0  0  0  0  0  0  0  0
    3.0790    0.0628    0.0000 C   0  0  0  0  0  0  0  0  0  0  0  0
    2.4115    1.3727    0.0000 C   0  0  0  0  0  0  0  0  0  0  0  0
    2.3645   -1.1747    0.0000 C   0  0  0  0  0  0  0  0  0  0  0  0
    3.9764    2.8248    0.0000 C   0  0  0  0  0  0  0  0  0  0  0  0
    1.6500   -1.5873    0.0000 C   0  0  0  0  0  0  0  0  0  0  0  0
    3.0790   -1.5873    0.0000 C   0  0  0  0  0  0  0  0  0  0  0  0
    1.6500   -2.4123    0.0000 C   0  0  0  0  0  0  0  0  0  0  0  0
    2.3645   -2.8248    0.0000 C   0  0  0  0  0  0  0  0  0  0  0  0
  1  7  1  0  0  0  0
  1  9  1  0  0  0  0
  2  8  2  0  0  0  0
  3  8  1  0  0  0  0
  3 10  1  0  0  0  0
  4 13  2  0  0  0  0
  4 15  1  0  0  0  0
  5  6  1  0  0  0  0
  5  8  1  0  0  0  0
  5  9  2  0  0  0  0
  6  7  2  0  0  0  0
  7 11  1  0  0  0  0
 10 12  2  0  0  0  0
 10 13  1  0  0  0  0
 12 14  1  0  0  0  0
 14 15  2  0  0  0  0
M  END
> <From>
www.bindingDB.org

> <BindingDB Reactant_set_id>
108167

> <Ligand InChI>
InChI=1S/C11H10N2OS/c1-8-5-9(7-15-8)11(14)13-10-3-2-4-12-6-10/h2-7H,1H3,(H,13,14)

> <Ligand InChI Key>
SHJZWAQUAZXSLI-UHFFFAOYSA-N

> <BindingDB MonomerID>
56847

> <BindingDB Ligand Name>
5-methyl-N-(3-pyridinyl)-3-thiophenecarboxamide::5-methyl-N-(3-pyridyl)thiophene-3-carboxamide::5-methyl-N-3-pyridinyl-3-thiophenecarboxamide::5-methyl-N-pyridin-3-yl-thiophene-3-carboxamide::5-methyl-N-pyridin-3-ylthiophene-3-carboxamide::MLS000065901::SMR000080618::cid_1246640

> <Target Name>
DNA repair protein RAD51 homolog 1

> <Target Source Organism According to Curator or DataSource>
Homo sapiens

> <Ki (nM)>


> <IC50 (nM)>
 85000

> <Kd (nM)>


> <EC50 (nM)>


> <kon (M-1-s-1)>


> <koff (s-1)>


> <pH>


> <Temp C>


> <Curation/DataSource>
PubChem

> <Article DOI>


> <BindingDB Entry DOI>
10.7270/Q2BV7F1T

> <PMID>


> <PubChem AID>
aid1435

> <Patent Number>


> <Authors>
PubChem, PC

> <Date of publication>
11/21/2008

> <Date in BindingDB>
6/8/2011

> <Institution>
PCMD

> <Link to Ligand in BindingDB>
http://www.bindingdb.org/bind/chemsearch/marvin/MolStructure.jsp?monomerid=56847

> <Link to Ligand-Target Pair in BindingDB>
http://www.bindingdb.org/jsp/dbsearch/PrimarySearch_ki.jsp?energyterm=kJ/mole&tag=pol&polymerid=4676&target=DNA+repair+protein+RAD51+homolog+1&column=ki&startPg=0&Increment=50&submit=Search

> <Link to Ligand-Target Pair in BindingDB>
http://www.bindingdb.org/jsp/dbsearch/PrimarySearch_ki.jsp?energyterm=kJ/mole&tag=r21&monomerid=56847&enzyme=DNA+repair+protein+RAD51+homolog+1&column=ki&startPg=0&Increment=50&submit=Search

> <Ligand HET ID in PDB>


> <PDB ID(s) for Ligand-Target Complex>


> <PubChem CID of Ligand>
1246640

> <PubChem SID of Ligand>
252636802

> <ChEBI ID of Ligand>


> <ChEMBL ID of Ligand>


> <DrugBank ID of Ligand>


> <IUPHAR_GRAC ID of Ligand>


> <KEGG ID of Ligand>


> <ZINC ID of Ligand>
ZINC01055319

> <Number of Protein Chains in Target (bigger than 1 implies a multichain complex)>
1

> <BindingDB Target Chain Sequence>
MAMQMQLEANADTSVEEESFGPQPISRLEQCGINANDVKKLEEAGFHTVEAVAYAPKKELINIKGISEAKADKILAEAAKLVPMGFTTATEFHQRRSEIIQITTGSKELDKLLQGGIETGSITEMFGEFRTGKTQICHTLAVTCQLPIDRGGGEGKAMYIDTEGTFRPERLLAVAERYGLSGSDVLDNVAYARAFNTDHQTQLLYQASAMMVESRYALLIVDSATALYRTDYSGRGELSARQMHLARFLRMLLRLADEFGVAVVITNQVVAQVDGAAMFAADPKKPIGGNIIAHASTTRLYLRKGRGETRICKIYDSPCLPEAEAMFAINADGVGDAKD

> <PDB ID(s) of Target Chain>
1N0W,5JZC,5NP7,5NWL,8BQ2,8BR2,8BSC

> <UniProt (SwissProt) Recommended Name of Target Chain>
DNA repair protein RAD51 homolog 1

> <UniProt (SwissProt) Entry Name of Target Chain>
RAD51_HUMAN

> <UniProt (SwissProt) Primary ID of Target Chain>
Q06609

> <UniProt (SwissProt) Secondary ID(s) of Target Chain>
B0FXP0 B2R8T6 Q6FHX9 Q6ZNA8 Q9BV60

> <UniProt (SwissProt) Alternative ID(s) of Target Chain>


> <UniProt (TrEMBL) Submitted Name of Target Chain>


> <UniProt (TrEMBL) Entry Name of Target Chain>


> <UniProt (TrEMBL) Primary ID of Target Chain>


> <UniProt (TrEMBL) Secondary ID(s) of Target Chain>


> <UniProt (TrEMBL) Alternative ID(s) of Target Chain>


$$$$
2941177
  Mrv0541 11191410422D          

 19 20  0  0  0  0            999 V2000
    3.6999    1.0390    0.0000 O   0  0  0  0  0  0  0  0  0  0  0  0
    3.0324   -2.7460    0.0000 O   0  0  0  0  0  0  0  0  0  0  0  0
    3.9299    2.4911    0.0000 N   0  0  0  0  0  0  0  0  0  0  0  0
    2.3650    1.0390    0.0000 N   0  0  0  0  0  0  0  0  0  0  0  0
    1.6500    3.1585    0.0000 N   0  0  0  0  0  0  0  0  0  0  0  0
    3.0324   -0.2709    0.0000 C   0  0  0  0  0  0  0  0  0  0  0  0
    3.0324    0.5541    0.0000 C   0  0  0  0  0  0  0  0  0  0  0  0
    3.4449    1.8236    0.0000 C   0  0  0  0  0  0  0  0  0  0  0  0
    2.3180   -0.6834    0.0000 C   0  0  0  0  0  0  0  0  0  0  0  0
    3.7469   -0.6834    0.0000 C   0  0  0  0  0  0  0  0  0  0  0  0
    2.6199    1.8236    0.0000 C   0  0  0  0  0  0  0  0  0  0  0  0
    3.0324   -1.9210    0.0000 C   0  0  0  0  0  0  0  0  0  0  0  0
    2.3180   -1.5085    0.0000 C   0  0  0  0  0  0  0  0  0  0  0  0
    3.7469   -1.5085    0.0000 C   0  0  0  0  0  0  0  0  0  0  0  0
    4.7504    2.4048    0.0000 C   0  0  0  0  0  0  0  0  0  0  0  0
    5.2353    3.0723    0.0000 C   0  0  0  0  0  0  0  0  0  0  0  0
    2.1350    2.4911    0.0000 C   0  0  0  0  0  0  0  0  0  0  0  0
    2.3180   -3.1585    0.0000 C   0  0  0  0  0  0  0  0  0  0  0  0
    6.0558    2.9861    0.0000 C   0  0  0  0  0  0  0  0  0  0  0  0
  1  7  1  0  0  0  0
  1  8  1  0  0  0  0
  2 12  1  0  0  0  0
  2 18  1  0  0  0  0
  3  8  1  0  0  0  0
  3 15  1  0  0  0  0
  4  7  2  0  0  0  0
  4 11  1  0  0  0  0
  5 17  3  0  0  0  0
  6  7  1  0  0  0  0
  6  9  2  0  0  0  0
  6 10  1  0  0  0  0
  8 11  2  0  0  0  0
  9 13  1  0  0  0  0
 10 14  2  0  0  0  0
 11 17  1  0  0  0  0
 12 13  2  0  0  0  0
 12 14  1  0  0  0  0
 15 16  1  0  0  0  0
 16 19  2  0  0  0  0
M  END
> <From>
www.bindingDB.org

> <BindingDB Reactant_set_id>
108168

> <Ligand InChI>
InChI=1S/C14H13N3O2/c1-3-8-16-14-12(9-15)17-13(19-14)10-4-6-11(18-2)7-5-10/h3-7,16H,1,8H2,2H3

> <Ligand InChI Key>
JQMPRRWRJKMISY-UHFFFAOYSA-N

> <BindingDB MonomerID>
56848

> <BindingDB Ligand Name>
2-(4-methoxyphenyl)-5-(prop-2-enylamino)-1,3-oxazole-4-carbonitrile::2-(4-methoxyphenyl)-5-(prop-2-enylamino)-4-oxazolecarbonitrile::5-(allylamino)-2-(4-methoxyphenyl)-1,3-oxazole-4-carbonitrile::5-(allylamino)-2-(4-methoxyphenyl)oxazole-4-carbonitrile::MLS000062348::SMR000072954::cid_2941177

> <Target Name>
DNA repair protein RAD51 homolog 1

> <Target Source Organism According to Curator or DataSource>
Homo sapiens

> <Ki (nM)>


> <IC50 (nM)>
 85000

> <Kd (nM)>


> <EC50 (nM)>


> <kon (M-1-s-1)>


> <koff (s-1)>


> <pH>


> <Temp C>


> <Curation/DataSource>
PubChem

> <Article DOI>


> <BindingDB Entry DOI>
10.7270/Q2BV7F1T

> <PMID>


> <PubChem AID>
aid1435

> <Patent Number>


> <Authors>
PubChem, PC

> <Date of publication>
11/21/2008

> <Date in BindingDB>
6/8/2011

> <Institution>
PCMD

> <Link to Ligand in BindingDB>
http://www.bindingdb.org/bind/chemsearch/marvin/MolStructure.jsp?monomerid=56848

> <Link to Ligand-Target Pair in BindingDB>
http://www.bindingdb.org/jsp/dbsearch/PrimarySearch_ki.jsp?energyterm=kJ/mole&tag=pol&polymerid=4676&target=DNA+repair+protein+RAD51+homolog+1&column=ki&startPg=0&Increment=50&submit=Search

> <Link to Ligand-Target Pair in BindingDB>
http://www.bindingdb.org/jsp/dbsearch/PrimarySearch_ki.jsp?energyterm=kJ/mole&tag=r21&monomerid=56848&enzyme=DNA+repair+protein+RAD51+homolog+1&column=ki&startPg=0&Increment=50&submit=Search

> <Ligand HET ID in PDB>


> <PDB ID(s) for Ligand-Target Complex>


> <PubChem CID of Ligand>
2941177

> <PubChem SID of Ligand>
252636803

> <ChEBI ID of Ligand>


> <ChEMBL ID of Ligand>


> <DrugBank ID of Ligand>


> <IUPHAR_GRAC ID of Ligand>


> <KEGG ID of Ligand>


> <ZINC ID of Ligand>
ZINC04197236

> <Number of Protein Chains in Target (bigger than 1 implies a multichain complex)>
1

> <BindingDB Target Chain Sequence>
MAMQMQLEANADTSVEEESFGPQPISRLEQCGINANDVKKLEEAGFHTVEAVAYAPKKELINIKGISEAKADKILAEAAKLVPMGFTTATEFHQRRSEIIQITTGSKELDKLLQGGIETGSITEMFGEFRTGKTQICHTLAVTCQLPIDRGGGEGKAMYIDTEGTFRPERLLAVAERYGLSGSDVLDNVAYARAFNTDHQTQLLYQASAMMVESRYALLIVDSATALYRTDYSGRGELSARQMHLARFLRMLLRLADEFGVAVVITNQVVAQVDGAAMFAADPKKPIGGNIIAHASTTRLYLRKGRGETRICKIYDSPCLPEAEAMFAINADGVGDAKD

> <PDB ID(s) of Target Chain>
1N0W,5JZC,5NP7,5NWL,8BQ2,8BR2,8BSC

> <UniProt (SwissProt) Recommended Name of Target Chain>
DNA repair protein RAD51 homolog 1

> <UniProt (SwissProt) Entry Name of Target Chain>
RAD51_HUMAN

> <UniProt (SwissProt) Primary ID of Target Chain>
Q06609

> <UniProt (SwissProt) Secondary ID(s) of Target Chain>
B0FXP0 B2R8T6 Q6FHX9 Q6ZNA8 Q9BV60

> <UniProt (SwissProt) Alternative ID(s) of Target Chain>


> <UniProt (TrEMBL) Submitted Name of Target Chain>


> <UniProt (TrEMBL) Entry Name of Target Chain>


> <UniProt (TrEMBL) Primary ID of Target Chain>


> <UniProt (TrEMBL) Secondary ID(s) of Target Chain>


> <UniProt (TrEMBL) Alternative ID(s) of Target Chain>


$$$$
2948211
  -OEChem-09261420222D

 45 48  0     1  0  0  0  0  0999 V2000
    9.4294   -1.0192    0.0000 O   0  0  0  0  0  0  0  0  0  0  0  0
    7.7039   -1.1702    0.0000 O   0  0  0  0  0  0  0  0  0  0  0  0
    5.1623    0.2817    0.0000 N   0  0  0  0  0  0  0  0  0  0  0  0
    6.1970   -1.5104    0.0000 N   0  0  0  0  0  0  0  0  0  0  0  0
    7.9581    2.3481    0.0000 C   0  0  0  0  0  0  0  0  0  0  0  0
    8.6947    1.3655    0.0000 C   0  0  3  0  0  0  0  0  0  0  0  0
    8.4359    0.3996    0.0000 C   0  0  3  0  0  0  0  0  0  0  0  0
   10.5267    0.6067    0.0000 C   0  0  0  0  0  0  0  0  0  0  0  0
   10.2678   -0.3592    0.0000 C   0  0  0  0  0  0  0  0  0  0  0  0
    6.2038    0.2656    0.0000 C   0  0  0  0  0  0  0  0  0  0  0  0
    6.7038   -0.6004    0.0000 C   0  0  0  0  0  0  0  0  0  0  0  0
    8.0626    3.3426    0.0000 C   0  0  0  0  0  0  0  0  0  0  0  0
    7.0446    2.7549    0.0000 C   0  0  0  0  0  0  0  0  0  0  0  0
    8.9535    2.3314    0.0000 C   0  0  0  0  0  0  0  0  0  0  0  0
    8.5231   -0.5966    0.0000 C   0  0  0  0  0  0  0  0  0  0  0  0
    4.6346   -0.6164    0.0000 C   0  0  0  0  0  0  0  0  0  0  0  0
    5.1554   -1.5184    0.0000 C   0  0  0  0  0  0  0  0  0  0  0  0
    3.5497   -0.5996    0.0000 C   0  0  0  0  0  0  0  0  0  0  0  0
    4.6274   -2.4663    0.0000 C   0  0  0  0  0  0  0  0  0  0  0  0
    3.0000   -1.5351    0.0000 C   0  0  0  0  0  0  0  0  0  0  0  0
    3.5425   -2.4747    0.0000 C   0  0  0  0  0  0  0  0  0  0  0  0
    2.0000   -1.5312    0.0000 C   0  0  0  0  0  0  0  0  0  0  0  0
    3.0458   -3.3426    0.0000 C   0  0  0  0  0  0  0  0  0  0  0  0
   11.1180    0.4203    0.0000 H   0  0  0  0  0  0  0  0  0  0  0  0
   10.7387    1.1893    0.0000 H   0  0  0  0  0  0  0  0  0  0  0  0
   10.0558   -0.9418    0.0000 H   0  0  0  0  0  0  0  0  0  0  0  0
   10.8592   -0.5457    0.0000 H   0  0  0  0  0  0  0  0  0  0  0  0
    8.6792    3.2778    0.0000 H   0  0  0  0  0  0  0  0  0  0  0  0
    8.1274    3.9592    0.0000 H   0  0  0  0  0  0  0  0  0  0  0  0
    7.4460    3.4074    0.0000 H   0  0  0  0  0  0  0  0  0  0  0  0
    7.2967    3.3213    0.0000 H   0  0  0  0  0  0  0  0  0  0  0  0
    6.4782    3.0070    0.0000 H   0  0  0  0  0  0  0  0  0  0  0  0
    6.7924    2.1885    0.0000 H   0  0  0  0  0  0  0  0  0  0  0  0
    9.5524    2.1710    0.0000 H   0  0  0  0  0  0  0  0  0  0  0  0
    9.1140    2.9303    0.0000 H   0  0  0  0  0  0  0  0  0  0  0  0
    8.3547    2.4919    0.0000 H   0  0  0  0  0  0  0  0  0  0  0  0
    9.4834   -1.6369    0.0000 H   0  0  0  0  0  0  0  0  0  0  0  0
    3.2460   -0.0592    0.0000 H   0  0  0  0  0  0  0  0  0  0  0  0
    4.9436   -2.9996    0.0000 H   0  0  0  0  0  0  0  0  0  0  0  0
    2.0024   -0.9112    0.0000 H   0  0  0  0  0  0  0  0  0  0  0  0
    1.3800   -1.5288    0.0000 H   0  0  0  0  0  0  0  0  0  0  0  0
    1.9976   -2.1512    0.0000 H   0  0  0  0  0  0  0  0  0  0  0  0
    2.5077   -3.0347    0.0000 H   0  0  0  0  0  0  0  0  0  0  0  0
    2.7379   -3.8808    0.0000 H   0  0  0  0  0  0  0  0  0  0  0  0
    3.5840   -3.6506    0.0000 H   0  0  0  0  0  0  0  0  0  0  0  0
  1 15  1  0  0  0  0
  1 37  1  0  0  0  0
  2 15  2  0  0  0  0
  3 10  2  0  0  0  0
  3 16  1  0  0  0  0
  4 11  2  0  0  0  0
  4 17  1  0  0  0  0
  5  6  1  0  0  0  0
  5  7  1  0  0  0  0
  5 12  1  0  0  0  0
  5 13  1  0  0  0  0
  6  8  1  0  0  0  0
  6 10  1  0  0  0  0
  6 14  1  0  0  0  0
  7  9  1  0  0  0  0
  7 11  1  0  0  0  0
  7 15  1  0  0  0  0
  8  9  1  0  0  0  0
  8 24  1  0  0  0  0
  8 25  1  0  0  0  0
  9 26  1  0  0  0  0
  9 27  1  0  0  0  0
 10 11  1  0  0  0  0
 12 28  1  0  0  0  0
 12 29  1  0  0  0  0
 12 30  1  0  0  0  0
 13 31  1  0  0  0  0
 13 32  1  0  0  0  0
 13 33  1  0  0  0  0
 14 34  1  0  0  0  0
 14 35  1  0  0  0  0
 14 36  1  0  0  0  0
 16 17  2  0  0  0  0
 16 18  1  0  0  0  0
 17 19  1  0  0  0  0
 18 20  2  0  0  0  0
 18 38  1  0  0  0  0
 19 21  2  0  0  0  0
 19 39  1  0  0  0  0
 20 21  1  0  0  0  0
 20 22  1  0  0  0  0
 21 23  1  0  0  0  0
 22 40  1  0  0  0  0
 22 41  1  0  0  0  0
 22 42  1  0  0  0  0
 23 43  1  0  0  0  0
 23 44  1  0  0  0  0
 23 45  1  0  0  0  0
M  END
> <From>
www.bindingDB.org

> <BindingDB Reactant_set_id>
108169

> <Ligand InChI>
InChI=1S/C19H22N2O2/c1-10-8-12-13(9-11(10)2)21-15-14(20-12)18(5)6-7-19(15,16(22)23)17(18,3)4/h8-9H,6-7H2,1-5H3,(H,22,23)

> <Ligand InChI Key>
OVYNUABZJBLWSS-UHFFFAOYSA-N

> <BindingDB MonomerID>
51310

> <BindingDB Ligand Name>
6,7,12,15,15-pentamethyl-3,10-diazatetracyclo[10.2.1.0~2,11~.0~4,9~]pentadeca-2(11),3,5,7,9-pentaene-1-carboxylic acid::MLS000063296::SMR000074934::cid_2948211

> <Target Name>
DNA repair protein RAD51 homolog 1

> <Target Source Organism According to Curator or DataSource>
Homo sapiens

> <Ki (nM)>


> <IC50 (nM)>
 37066

> <Kd (nM)>


> <EC50 (nM)>


> <kon (M-1-s-1)>


> <koff (s-1)>


> <pH>


> <Temp C>


> <Curation/DataSource>
PubChem

> <Article DOI>


> <BindingDB Entry DOI>
10.7270/Q2BV7F1T

> <PMID>


> <PubChem AID>
aid1435

> <Patent Number>


> <Authors>
PubChem, PC

> <Date of publication>
11/21/2008

> <Date in BindingDB>
6/8/2011

> <Institution>
PCMD

> <Link to Ligand in BindingDB>
http://www.bindingdb.org/bind/chemsearch/marvin/MolStructure.jsp?monomerid=51310

> <Link to Ligand-Target Pair in BindingDB>
http://www.bindingdb.org/jsp/dbsearch/PrimarySearch_ki.jsp?energyterm=kJ/mole&tag=pol&polymerid=4676&target=DNA+repair+protein+RAD51+homolog+1&column=ki&startPg=0&Increment=50&submit=Search

> <Link to Ligand-Target Pair in BindingDB>
http://www.bindingdb.org/jsp/dbsearch/PrimarySearch_ki.jsp?energyterm=kJ/mole&tag=r21&monomerid=51310&enzyme=DNA+repair+protein+RAD51+homolog+1&column=ki&startPg=0&Increment=50&submit=Search

> <Ligand HET ID in PDB>


> <PDB ID(s) for Ligand-Target Complex>


> <PubChem CID of Ligand>
2948211

> <PubChem SID of Ligand>
242053178

> <ChEBI ID of Ligand>


> <ChEMBL ID of Ligand>


> <DrugBank ID of Ligand>


> <IUPHAR_GRAC ID of Ligand>


> <KEGG ID of Ligand>


> <ZINC ID of Ligand>
ZINC04400619

> <Number of Protein Chains in Target (bigger than 1 implies a multichain complex)>
1

> <BindingDB Target Chain Sequence>
MAMQMQLEANADTSVEEESFGPQPISRLEQCGINANDVKKLEEAGFHTVEAVAYAPKKELINIKGISEAKADKILAEAAKLVPMGFTTATEFHQRRSEIIQITTGSKELDKLLQGGIETGSITEMFGEFRTGKTQICHTLAVTCQLPIDRGGGEGKAMYIDTEGTFRPERLLAVAERYGLSGSDVLDNVAYARAFNTDHQTQLLYQASAMMVESRYALLIVDSATALYRTDYSGRGELSARQMHLARFLRMLLRLADEFGVAVVITNQVVAQVDGAAMFAADPKKPIGGNIIAHASTTRLYLRKGRGETRICKIYDSPCLPEAEAMFAINADGVGDAKD

> <PDB ID(s) of Target Chain>
1N0W,5JZC,5NP7,5NWL,8BQ2,8BR2,8BSC

> <UniProt (SwissProt) Recommended Name of Target Chain>
DNA repair protein RAD51 homolog 1

> <UniProt (SwissProt) Entry Name of Target Chain>
RAD51_HUMAN

> <UniProt (SwissProt) Primary ID of Target Chain>
Q06609

> <UniProt (SwissProt) Secondary ID(s) of Target Chain>
B0FXP0 B2R8T6 Q6FHX9 Q6ZNA8 Q9BV60

> <UniProt (SwissProt) Alternative ID(s) of Target Chain>


> <UniProt (TrEMBL) Submitted Name of Target Chain>


> <UniProt (TrEMBL) Entry Name of Target Chain>


> <UniProt (TrEMBL) Primary ID of Target Chain>


> <UniProt (TrEMBL) Secondary ID(s) of Target Chain>


> <UniProt (TrEMBL) Alternative ID(s) of Target Chain>


$$$$
1218909
  Mrv0541 11191410422D          

 25 27  0  0  0  0            999 V2000
    3.0790   -0.2223    0.0000 O   0  0  0  0  0  0  0  0  0  0  0  0
    5.8899    3.9753    0.0000 O   0  0  0  0  0  0  0  0  0  0  0  0
    1.6500   -1.0473    0.0000 O   0  0  0  0  0  0  0  0  0  0  0  0
    5.9370    2.2528    0.0000 O   0  0  0  0  0  0  0  0  0  0  0  0
    4.5080    2.2528    0.0000 N   0  0  0  0  0  0  0  0  0  0  0  0
    2.3645   -2.2848    0.0000 C   0  0  0  0  0  0  0  0  0  0  0  0
    3.7935    0.1902    0.0000 C   0  0  0  0  0  0  0  0  0  0  0  0
    3.0790   -1.0473    0.0000 C   0  0  0  0  0  0  0  0  0  0  0  0
    4.5080    1.4278    0.0000 C   0  0  0  0  0  0  0  0  0  0  0  0
    2.3645   -1.4598    0.0000 C   0  0  0  0  0  0  0  0  0  0  0  0
    2.3645   -3.9348    0.0000 C   0  0  0  0  0  0  0  0  0  0  0  0
    3.7935    1.0153    0.0000 C   0  0  0  0  0  0  0  0  0  0  0  0
    1.6500   -2.6973    0.0000 C   0  0  0  0  0  0  0  0  0  0  0  0
    3.0790   -2.6973    0.0000 C   0  0  0  0  0  0  0  0  0  0  0  0
    1.6500   -3.5223    0.0000 C   0  0  0  0  0  0  0  0  0  0  0  0
    3.0790   -3.5223    0.0000 C   0  0  0  0  0  0  0  0  0  0  0  0
    4.5080   -0.2223    0.0000 C   0  0  0  0  0  0  0  0  0  0  0  0
    5.2224    1.0153    0.0000 C   0  0  0  0  0  0  0  0  0  0  0  0
    5.2224    0.1902    0.0000 C   0  0  0  0  0  0  0  0  0  0  0  0
    2.3645   -4.7599    0.0000 C   0  0  0  0  0  0  0  0  0  0  0  0
    5.2224    2.6653    0.0000 C   0  0  0  0  0  0  0  0  0  0  0  0
    5.2224    3.4903    0.0000 C   0  0  0  0  0  0  0  0  0  0  0  0
    4.5550    3.9753    0.0000 C   0  0  0  0  0  0  0  0  0  0  0  0
    4.8099    4.7599    0.0000 C   0  0  0  0  0  0  0  0  0  0  0  0
    5.6350    4.7599    0.0000 C   0  0  0  0  0  0  0  0  0  0  0  0
  1  7  1  0  0  0  0
  1  8  1  0  0  0  0
  2 22  1  0  0  0  0
  2 25  1  0  0  0  0
  3 10  2  0  0  0  0
  4 21  2  0  0  0  0
  5  9  1  0  0  0  0
  5 21  1  0  0  0  0
  6 10  1  0  0  0  0
  6 13  2  0  0  0  0
  6 14  1  0  0  0  0
  7 12  2  0  0  0  0
  7 17  1  0  0  0  0
  8 10  1  0  0  0  0
  9 12  1  0  0  0  0
  9 18  2  0  0  0  0
 11 15  2  0  0  0  0
 11 16  1  0  0  0  0
 11 20  1  0  0  0  0
 13 15  1  0  0  0  0
 14 16  2  0  0  0  0
 17 19  2  0  0  0  0
 18 19  1  0  0  0  0
 21 22  1  0  0  0  0
 22 23  2  0  0  0  0
 23 24  1  0  0  0  0
 24 25  2  0  0  0  0
M  END
> <From>
www.bindingDB.org

> <BindingDB Reactant_set_id>
108170

> <Ligand InChI>
InChI=1S/C20H17NO4/c1-14-7-9-15(10-8-14)18(22)13-25-17-5-2-4-16(12-17)21-20(23)19-6-3-11-24-19/h2-12H,13H2,1H3,(H,21,23)

> <Ligand InChI Key>
SFDAJSHIVSTKDE-UHFFFAOYSA-N

> <BindingDB MonomerID>
56849

> <BindingDB Ligand Name>
MLS000052557::N-[3-[2-(4-methylphenyl)-2-oxidanylidene-ethoxy]phenyl]furan-2-carboxamide::N-[3-[2-(4-methylphenyl)-2-oxoethoxy]phenyl]-2-furancarboxamide::N-[3-[2-(4-methylphenyl)-2-oxoethoxy]phenyl]furan-2-carboxamide::N-[3-[2-keto-2-(p-tolyl)ethoxy]phenyl]-2-furamide::N-{3-[2-(4-methylphenyl)-2-oxoethoxy]phenyl}-2-furamide::SMR000082052::cid_1218909

> <Target Name>
DNA repair protein RAD51 homolog 1

> <Target Source Organism According to Curator or DataSource>
Homo sapiens

> <Ki (nM)>


> <IC50 (nM)>
 85000

> <Kd (nM)>


> <EC50 (nM)>


> <kon (M-1-s-1)>


> <koff (s-1)>


> <pH>


> <Temp C>


> <Curation/DataSource>
PubChem

> <Article DOI>


> <BindingDB Entry DOI>
10.7270/Q2BV7F1T

> <PMID>


> <PubChem AID>
aid1435

> <Patent Number>


> <Authors>
PubChem, PC

> <Date of publication>
11/21/2008

> <Date in BindingDB>
6/8/2011

> <Institution>
PCMD

> <Link to Ligand in BindingDB>
http://www.bindingdb.org/bind/chemsearch/marvin/MolStructure.jsp?monomerid=56849

> <Link to Ligand-Target Pair in BindingDB>
http://www.bindingdb.org/jsp/dbsearch/PrimarySearch_ki.jsp?energyterm=kJ/mole&tag=pol&polymerid=4676&target=DNA+repair+protein+RAD51+homolog+1&column=ki&startPg=0&Increment=50&submit=Search

> <Link to Ligand-Target Pair in BindingDB>
http://www.bindingdb.org/jsp/dbsearch/PrimarySearch_ki.jsp?energyterm=kJ/mole&tag=r21&monomerid=56849&enzyme=DNA+repair+protein+RAD51+homolog+1&column=ki&startPg=0&Increment=50&submit=Search

> <Ligand HET ID in PDB>


> <PDB ID(s) for Ligand-Target Complex>


> <PubChem CID of Ligand>
1218909

> <PubChem SID of Ligand>
252636804

> <ChEBI ID of Ligand>


> <ChEMBL ID of Ligand>


> <DrugBank ID of Ligand>


> <IUPHAR_GRAC ID of Ligand>


> <KEGG ID of Ligand>


> <ZINC ID of Ligand>
ZINC00993440

> <Number of Protein Chains in Target (bigger than 1 implies a multichain complex)>
1

> <BindingDB Target Chain Sequence>
MAMQMQLEANADTSVEEESFGPQPISRLEQCGINANDVKKLEEAGFHTVEAVAYAPKKELINIKGISEAKADKILAEAAKLVPMGFTTATEFHQRRSEIIQITTGSKELDKLLQGGIETGSITEMFGEFRTGKTQICHTLAVTCQLPIDRGGGEGKAMYIDTEGTFRPERLLAVAERYGLSGSDVLDNVAYARAFNTDHQTQLLYQASAMMVESRYALLIVDSATALYRTDYSGRGELSARQMHLARFLRMLLRLADEFGVAVVITNQVVAQVDGAAMFAADPKKPIGGNIIAHASTTRLYLRKGRGETRICKIYDSPCLPEAEAMFAINADGVGDAKD

> <PDB ID(s) of Target Chain>
1N0W,5JZC,5NP7,5NWL,8BQ2,8BR2,8BSC

> <UniProt (SwissProt) Recommended Name of Target Chain>
DNA repair protein RAD51 homolog 1

> <UniProt (SwissProt) Entry Name of Target Chain>
RAD51_HUMAN

> <UniProt (SwissProt) Primary ID of Target Chain>
Q06609

> <UniProt (SwissProt) Secondary ID(s) of Target Chain>
B0FXP0 B2R8T6 Q6FHX9 Q6ZNA8 Q9BV60

> <UniProt (SwissProt) Alternative ID(s) of Target Chain>


> <UniProt (TrEMBL) Submitted Name of Target Chain>


> <UniProt (TrEMBL) Entry Name of Target Chain>


> <UniProt (TrEMBL) Primary ID of Target Chain>


> <UniProt (TrEMBL) Secondary ID(s) of Target Chain>


> <UniProt (TrEMBL) Alternative ID(s) of Target Chain>


$$$$
975740
  Mrv0541 11191410422D          

 21 22  0  0  0  0            999 V2000
    3.0790   -0.8541    0.0000 S   0  0  0  0  0  0  0  0  0  0  0  0
    4.4610    0.8684    0.0000 S   0  0  0  0  0  0  0  0  0  0  0  0
    2.6665   -0.1396    0.0000 O   0  0  0  0  0  0  0  0  0  0  0  0
    3.4915   -1.5685    0.0000 O   0  0  0  0  0  0  0  0  0  0  0  0
    3.7935   -0.4415    0.0000 N   0  0  0  0  0  0  0  0  0  0  0  0
    3.3810    1.6530    0.0000 N   0  0  0  0  0  0  0  0  0  0  0  0
    3.1261    0.8684    0.0000 N   0  0  0  0  0  0  0  0  0  0  0  0
    4.6910    2.3204    0.0000 C   0  0  0  0  0  0  0  0  0  0  0  0
    4.3554    3.0742    0.0000 C   0  0  0  0  0  0  0  0  0  0  0  0
    5.5115    2.2342    0.0000 C   0  0  0  0  0  0  0  0  0  0  0  0
    4.2060    1.6530    0.0000 C   0  0  0  0  0  0  0  0  0  0  0  0
    4.8403    3.7416    0.0000 C   0  0  0  0  0  0  0  0  0  0  0  0
    5.9964    2.9017    0.0000 C   0  0  0  0  0  0  0  0  0  0  0  0
    2.3645   -1.2666    0.0000 C   0  0  0  0  0  0  0  0  0  0  0  0
    3.7935    0.3835    0.0000 C   0  0  0  0  0  0  0  0  0  0  0  0
    2.3645   -2.0916    0.0000 C   0  0  0  0  0  0  0  0  0  0  0  0
    1.6500   -2.5041    0.0000 C   0  0  0  0  0  0  0  0  0  0  0  0
    3.0790   -2.5041    0.0000 C   0  0  0  0  0  0  0  0  0  0  0  0
    1.6500   -3.3291    0.0000 C   0  0  0  0  0  0  0  0  0  0  0  0
    3.0790   -3.3291    0.0000 C   0  0  0  0  0  0  0  0  0  0  0  0
    2.3645   -3.7416    0.0000 C   0  0  0  0  0  0  0  0  0  0  0  0
  1  3  2  0  0  0  0
  1  4  2  0  0  0  0
  1  5  1  0  0  0  0
  1 14  1  0  0  0  0
  2 11  1  0  0  0  0
  2 15  1  0  0  0  0
  5 15  1  0  0  0  0
  6  7  1  0  0  0  0
  6 11  2  0  0  0  0
  7 15  2  0  0  0  0
  8  9  1  0  0  0  0
  8 10  1  0  0  0  0
  8 11  1  0  0  0  0
  9 12  1  0  0  0  0
 10 13  1  0  0  0  0
 14 16  1  0  0  0  0
 16 17  2  0  0  0  0
 16 18  1  0  0  0  0
 17 19  1  0  0  0  0
 18 20  2  0  0  0  0
 19 21  2  0  0  0  0
 20 21  1  0  0  0  0
M  END
> <From>
www.bindingDB.org

> <BindingDB Reactant_set_id>
108171

> <Ligand InChI>
InChI=1S/C14H19N3O2S2/c1-3-12(4-2)13-15-16-14(20-13)17-21(18,19)10-11-8-6-5-7-9-11/h5-9,12H,3-4,10H2,1-2H3,(H,16,17)

> <Ligand InChI Key>
PGPUTZVYBZOOOM-UHFFFAOYSA-N

> <BindingDB MonomerID>
56850

> <BindingDB Ligand Name>
MLS000063284::N-(5-pentan-3-yl-1,3,4-thiadiazol-2-yl)-1-phenyl-methanesulfonamide::N-(5-pentan-3-yl-1,3,4-thiadiazol-2-yl)-1-phenylmethanesulfonamide::N-[5-(1-ethylpropyl)-1,3,4-thiadiazol-2-yl]-1-phenyl-methanesulfonamide::N-[5-(1-ethylpropyl)-1,3,4-thiadiazol-2-yl]-1-phenylmethanesulfonamide::SMR000074911::cid_975740

> <Target Name>
DNA repair protein RAD51 homolog 1

> <Target Source Organism According to Curator or DataSource>
Homo sapiens

> <Ki (nM)>


> <IC50 (nM)>
 85000

> <Kd (nM)>


> <EC50 (nM)>


> <kon (M-1-s-1)>


> <koff (s-1)>


> <pH>


> <Temp C>


> <Curation/DataSource>
PubChem

> <Article DOI>


> <BindingDB Entry DOI>
10.7270/Q2BV7F1T

> <PMID>


> <PubChem AID>
aid1435

> <Patent Number>


> <Authors>
PubChem, PC

> <Date of publication>
11/21/2008

> <Date in BindingDB>
6/8/2011

> <Institution>
PCMD

> <Link to Ligand in BindingDB>
http://www.bindingdb.org/bind/chemsearch/marvin/MolStructure.jsp?monomerid=56850

> <Link to Ligand-Target Pair in BindingDB>
http://www.bindingdb.org/jsp/dbsearch/PrimarySearch_ki.jsp?energyterm=kJ/mole&tag=pol&polymerid=4676&target=DNA+repair+protein+RAD51+homolog+1&column=ki&startPg=0&Increment=50&submit=Search

> <Link to Ligand-Target Pair in BindingDB>
http://www.bindingdb.org/jsp/dbsearch/PrimarySearch_ki.jsp?energyterm=kJ/mole&tag=r21&monomerid=56850&enzyme=DNA+repair+protein+RAD51+homolog+1&column=ki&startPg=0&Increment=50&submit=Search

> <Ligand HET ID in PDB>


> <PDB ID(s) for Ligand-Target Complex>


> <PubChem CID of Ligand>
975740

> <PubChem SID of Ligand>
252636805

> <ChEBI ID of Ligand>


> <ChEMBL ID of Ligand>


> <DrugBank ID of Ligand>


> <IUPHAR_GRAC ID of Ligand>


> <KEGG ID of Ligand>


> <ZINC ID of Ligand>
ZINC00617595

> <Number of Protein Chains in Target (bigger than 1 implies a multichain complex)>
1

> <BindingDB Target Chain Sequence>
MAMQMQLEANADTSVEEESFGPQPISRLEQCGINANDVKKLEEAGFHTVEAVAYAPKKELINIKGISEAKADKILAEAAKLVPMGFTTATEFHQRRSEIIQITTGSKELDKLLQGGIETGSITEMFGEFRTGKTQICHTLAVTCQLPIDRGGGEGKAMYIDTEGTFRPERLLAVAERYGLSGSDVLDNVAYARAFNTDHQTQLLYQASAMMVESRYALLIVDSATALYRTDYSGRGELSARQMHLARFLRMLLRLADEFGVAVVITNQVVAQVDGAAMFAADPKKPIGGNIIAHASTTRLYLRKGRGETRICKIYDSPCLPEAEAMFAINADGVGDAKD

> <PDB ID(s) of Target Chain>
1N0W,5JZC,5NP7,5NWL,8BQ2,8BR2,8BSC

> <UniProt (SwissProt) Recommended Name of Target Chain>
DNA repair protein RAD51 homolog 1

> <UniProt (SwissProt) Entry Name of Target Chain>
RAD51_HUMAN

> <UniProt (SwissProt) Primary ID of Target Chain>
Q06609

> <UniProt (SwissProt) Secondary ID(s) of Target Chain>
B0FXP0 B2R8T6 Q6FHX9 Q6ZNA8 Q9BV60

> <UniProt (SwissProt) Alternative ID(s) of Target Chain>


> <UniProt (TrEMBL) Submitted Name of Target Chain>


> <UniProt (TrEMBL) Entry Name of Target Chain>


> <UniProt (TrEMBL) Primary ID of Target Chain>


> <UniProt (TrEMBL) Secondary ID(s) of Target Chain>


> <UniProt (TrEMBL) Alternative ID(s) of Target Chain>


$$$$
1305851
  Mrv0541 11191410422D          

 31 34  0  0  0  0            999 V2000
    8.0537   -1.4390    0.0000 S   0  0  0  0  0  0  0  0  0  0  0  0
    3.8597    2.7974    0.0000 S   0  0  0  0  0  0  0  0  0  0  0  0
    8.7682   -1.0265    0.0000 O   0  0  0  0  0  0  0  0  0  0  0  0
    7.3392   -1.8515    0.0000 O   0  0  0  0  0  0  0  0  0  0  0  0
    4.5279    3.2812    0.0000 O   0  0  0  0  0  0  0  0  0  0  0  0
    3.6061    3.5825    0.0000 O   0  0  0  0  0  0  0  0  0  0  0  0
    4.1159    0.6853    0.0000 O   0  0  0  0  0  0  0  0  0  0  0  0
    5.1662    0.7045    0.0000 O   0  0  0  0  0  0  0  0  0  0  0  0
    8.4663   -2.1535    0.0000 N   0  0  0  0  0  0  0  0  0  0  0  0
    4.3412    2.1334    0.0000 N   0  0  0  0  0  0  0  0  0  0  0  0
    6.4037    1.4189    0.0000 N   0  0  0  0  0  0  0  0  0  0  0  0
    8.0537   -2.8679    0.0000 C   0  0  0  0  0  0  0  0  0  0  0  0
    9.2913   -2.1535    0.0000 C   0  0  0  0  0  0  0  0  0  0  0  0
    8.4663   -3.5825    0.0000 C   0  0  0  0  0  0  0  0  0  0  0  0
    9.7038   -2.8679    0.0000 C   0  0  0  0  0  0  0  0  0  0  0  0
    9.2913   -3.5825    0.0000 C   0  0  0  0  0  0  0  0  0  0  0  0
    7.6412   -0.7245    0.0000 C   0  0  0  0  0  0  0  0  0  0  0  0
    3.0790    2.5459    0.0000 C   0  0  0  0  0  0  0  0  0  0  0  0
    3.0790    1.7209    0.0000 C   0  0  0  0  0  0  0  0  0  0  0  0
    8.0537   -0.0100    0.0000 C   0  0  0  0  0  0  0  0  0  0  0  0
    6.8162   -0.7245    0.0000 C   0  0  0  0  0  0  0  0  0  0  0  0
    5.1662    2.1334    0.0000 C   0  0  0  0  0  0  0  0  0  0  0  0
    3.8597    1.4695    0.0000 C   0  0  0  0  0  0  0  0  0  0  0  0
    6.8162    0.7045    0.0000 C   0  0  0  0  0  0  0  0  0  0  0  0
    7.6412    0.7045    0.0000 C   0  0  0  0  0  0  0  0  0  0  0  0
    6.4037   -0.0100    0.0000 C   0  0  0  0  0  0  0  0  0  0  0  0
    2.3645    2.9584    0.0000 C   0  0  0  0  0  0  0  0  0  0  0  0
    5.5787    1.4189    0.0000 C   0  0  0  0  0  0  0  0  0  0  0  0
    2.3645    1.3084    0.0000 C   0  0  0  0  0  0  0  0  0  0  0  0
    1.6500    2.5459    0.0000 C   0  0  0  0  0  0  0  0  0  0  0  0
    1.6500    1.7209    0.0000 C   0  0  0  0  0  0  0  0  0  0  0  0
  1  3  2  0  0  0  0
  1  4  2  0  0  0  0
  1  9  1  0  0  0  0
  1 17  1  0  0  0  0
  2  5  2  0  0  0  0
  2  6  2  0  0  0  0
  2 10  1  0  0  0  0
  2 18  1  0  0  0  0
  7 23  2  0  0  0  0
  8 28  2  0  0  0  0
  9 12  1  0  0  0  0
  9 13  1  0  0  0  0
 10 22  1  0  0  0  0
 10 23  1  0  0  0  0
 11 24  1  0  0  0  0
 11 28  1  0  0  0  0
 12 14  1  0  0  0  0
 13 15  1  0  0  0  0
 14 16  1  0  0  0  0
 15 16  1  0  0  0  0
 17 20  2  0  0  0  0
 17 21  1  0  0  0  0
 18 19  2  0  0  0  0
 18 27  1  0  0  0  0
 19 23  1  0  0  0  0
 19 29  1  0  0  0  0
 20 25  1  0  0  0  0
 21 26  2  0  0  0  0
 22 28  1  0  0  0  0
 24 25  2  0  0  0  0
 24 26  1  0  0  0  0
 27 30  2  0  0  0  0
 29 31  2  0  0  0  0
 30 31  1  0  0  0  0
M  END
> <From>
www.bindingDB.org

> <BindingDB Reactant_set_id>
108172

> <Ligand InChI>
InChI=1S/C20H21N3O6S2/c24-19(14-23-20(25)17-6-2-3-7-18(17)31(23,28)29)21-15-8-10-16(11-9-15)30(26,27)22-12-4-1-5-13-22/h2-3,6-11H,1,4-5,12-14H2,(H,21,24)

> <Ligand InChI Key>
ZRRQVKSYULCKOB-UHFFFAOYSA-N

> <BindingDB MonomerID>
56851

> <BindingDB Ligand Name>
2-(1,1-dioxido-3-oxo-1,2-benzisothiazol-2(3H)-yl)-N-[4-(1-piperidinylsulfonyl)phenyl]acetamide::MLS000096956::N-(4-piperidin-1-ylsulfonylphenyl)-2-(1,1,3-trioxo-1,2-benzothiazol-2-yl)acetamide::N-(4-piperidin-1-ylsulfonylphenyl)-2-[1,1,3-tris(oxidanylidene)-1,2-benzothiazol-2-yl]ethanamide::N-(4-piperidinosulfonylphenyl)-2-(1,1,3-triketo-1,2-benzothiazol-2-yl)acetamide::N-[4-(1-piperidinylsulfonyl)phenyl]-2-(1,1,3-trioxo-1,2-benzothiazol-2-yl)acetamide::SMR000074755::cid_1305851

> <Target Name>
DNA repair protein RAD51 homolog 1

> <Target Source Organism According to Curator or DataSource>
Homo sapiens

> <Ki (nM)>


> <IC50 (nM)>
 42500

> <Kd (nM)>


> <EC50 (nM)>


> <kon (M-1-s-1)>


> <koff (s-1)>


> <pH>


> <Temp C>


> <Curation/DataSource>
PubChem

> <Article DOI>


> <BindingDB Entry DOI>
10.7270/Q2BV7F1T

> <PMID>


> <PubChem AID>
aid1435

> <Patent Number>


> <Authors>
PubChem, PC

> <Date of publication>
11/21/2008

> <Date in BindingDB>
6/8/2011

> <Institution>
PCMD

> <Link to Ligand in BindingDB>
http://www.bindingdb.org/bind/chemsearch/marvin/MolStructure.jsp?monomerid=56851

> <Link to Ligand-Target Pair in BindingDB>
http://www.bindingdb.org/jsp/dbsearch/PrimarySearch_ki.jsp?energyterm=kJ/mole&tag=pol&polymerid=4676&target=DNA+repair+protein+RAD51+homolog+1&column=ki&startPg=0&Increment=50&submit=Search

> <Link to Ligand-Target Pair in BindingDB>
http://www.bindingdb.org/jsp/dbsearch/PrimarySearch_ki.jsp?energyterm=kJ/mole&tag=r21&monomerid=56851&enzyme=DNA+repair+protein+RAD51+homolog+1&column=ki&startPg=0&Increment=50&submit=Search

> <Ligand HET ID in PDB>


> <PDB ID(s) for Ligand-Target Complex>


> <PubChem CID of Ligand>
1305851

> <PubChem SID of Ligand>
252636806

> <ChEBI ID of Ligand>


> <ChEMBL ID of Ligand>


> <DrugBank ID of Ligand>


> <IUPHAR_GRAC ID of Ligand>


> <KEGG ID of Ligand>


> <ZINC ID of Ligand>
ZINC01130752

> <Number of Protein Chains in Target (bigger than 1 implies a multichain complex)>
1

> <BindingDB Target Chain Sequence>
MAMQMQLEANADTSVEEESFGPQPISRLEQCGINANDVKKLEEAGFHTVEAVAYAPKKELINIKGISEAKADKILAEAAKLVPMGFTTATEFHQRRSEIIQITTGSKELDKLLQGGIETGSITEMFGEFRTGKTQICHTLAVTCQLPIDRGGGEGKAMYIDTEGTFRPERLLAVAERYGLSGSDVLDNVAYARAFNTDHQTQLLYQASAMMVESRYALLIVDSATALYRTDYSGRGELSARQMHLARFLRMLLRLADEFGVAVVITNQVVAQVDGAAMFAADPKKPIGGNIIAHASTTRLYLRKGRGETRICKIYDSPCLPEAEAMFAINADGVGDAKD

> <PDB ID(s) of Target Chain>
1N0W,5JZC,5NP7,5NWL,8BQ2,8BR2,8BSC

> <UniProt (SwissProt) Recommended Name of Target Chain>
DNA repair protein RAD51 homolog 1

> <UniProt (SwissProt) Entry Name of Target Chain>
RAD51_HUMAN

> <UniProt (SwissProt) Primary ID of Target Chain>
Q06609

> <UniProt (SwissProt) Secondary ID(s) of Target Chain>
B0FXP0 B2R8T6 Q6FHX9 Q6ZNA8 Q9BV60

> <UniProt (SwissProt) Alternative ID(s) of Target Chain>


> <UniProt (TrEMBL) Submitted Name of Target Chain>


> <UniProt (TrEMBL) Entry Name of Target Chain>


> <UniProt (TrEMBL) Primary ID of Target Chain>


> <UniProt (TrEMBL) Secondary ID(s) of Target Chain>


> <UniProt (TrEMBL) Alternative ID(s) of Target Chain>


$$$$
2212108
  Mrv0541 11191410422D          

 27 31  0  0  0  0            999 V2000
    3.8597    1.2700    0.0000 O   0  0  0  0  0  0  0  0  0  0  0  0
   10.6667   -1.4310    0.0000 O   0  0  0  0  0  0  0  0  0  0  0  0
   11.3306   -0.2811    0.0000 O   0  0  0  0  0  0  0  0  0  0  0  0
    7.6412   -0.8230    0.0000 O   0  0  0  0  0  0  0  0  0  0  0  0
    7.6412    0.6060    0.0000 N   0  0  0  0  0  0  0  0  0  0  0  0
    3.8597   -0.0579    0.0000 N   0  0  0  0  0  0  0  0  0  0  0  0
    8.8788   -0.1085    0.0000 C   0  0  0  0  0  0  0  0  0  0  0  0
    5.1662    0.6060    0.0000 C   0  0  0  0  0  0  0  0  0  0  0  0
   10.1163   -0.8230    0.0000 C   0  0  0  0  0  0  0  0  0  0  0  0
   10.5288   -0.1085    0.0000 C   0  0  0  0  0  0  0  0  0  0  0  0
    6.8162    0.6060    0.0000 C   0  0  0  0  0  0  0  0  0  0  0  0
    4.3412    0.6060    0.0000 C   0  0  0  0  0  0  0  0  0  0  0  0
    9.2913   -0.8230    0.0000 C   0  0  0  0  0  0  0  0  0  0  0  0
    3.0790    1.0185    0.0000 C   0  0  0  0  0  0  0  0  0  0  0  0
    3.0790    0.1935    0.0000 C   0  0  0  0  0  0  0  0  0  0  0  0
    9.2913    0.6060    0.0000 C   0  0  0  0  0  0  0  0  0  0  0  0
    8.0537   -0.1085    0.0000 C   0  0  0  0  0  0  0  0  0  0  0  0
   10.1163    0.6060    0.0000 C   0  0  0  0  0  0  0  0  0  0  0  0
    5.5787    1.3205    0.0000 C   0  0  0  0  0  0  0  0  0  0  0  0
    5.5787   -0.1085    0.0000 C   0  0  0  0  0  0  0  0  0  0  0  0
    6.4037    1.3205    0.0000 C   0  0  0  0  0  0  0  0  0  0  0  0
    6.4037   -0.1085    0.0000 C   0  0  0  0  0  0  0  0  0  0  0  0
   11.4156   -1.0968    0.0000 C   0  0  0  0  0  0  0  0  0  0  0  0
    2.3645    1.4310    0.0000 C   0  0  0  0  0  0  0  0  0  0  0  0
    2.3645   -0.2190    0.0000 C   0  0  0  0  0  0  0  0  0  0  0  0
    1.6500    1.0185    0.0000 C   0  0  0  0  0  0  0  0  0  0  0  0
    1.6500    0.1935    0.0000 C   0  0  0  0  0  0  0  0  0  0  0  0
  1 12  1  0  0  0  0
  1 14  1  0  0  0  0
  2  9  1  0  0  0  0
  2 23  1  0  0  0  0
  3 10  1  0  0  0  0
  3 23  1  0  0  0  0
  4 17  2  0  0  0  0
  5 11  1  0  0  0  0
  5 17  1  0  0  0  0
  6 12  2  0  0  0  0
  6 15  1  0  0  0  0
  7 13  2  0  0  0  0
  7 16  1  0  0  0  0
  7 17  1  0  0  0  0
  8 12  1  0  0  0  0
  8 19  2  0  0  0  0
  8 20  1  0  0  0  0
  9 10  2  0  0  0  0
  9 13  1  0  0  0  0
 10 18  1  0  0  0  0
 11 21  2  0  0  0  0
 11 22  1  0  0  0  0
 14 15  1  0  0  0  0
 14 24  2  0  0  0  0
 15 25  2  0  0  0  0
 16 18  2  0  0  0  0
 19 21  1  0  0  0  0
 20 22  2  0  0  0  0
 24 26  1  0  0  0  0
 25 27  1  0  0  0  0
 26 27  2  0  0  0  0
M  END
> <From>
www.bindingDB.org

> <BindingDB Reactant_set_id>
108173

> <Ligand InChI>
InChI=1S/C21H14N2O4/c24-20(14-7-10-18-19(11-14)26-12-25-18)22-15-8-5-13(6-9-15)21-23-16-3-1-2-4-17(16)27-21/h1-11H,12H2,(H,22,24)

> <Ligand InChI Key>
WCTQMHIHVIKMIC-UHFFFAOYSA-N

> <BindingDB MonomerID>
56852

> <BindingDB Ligand Name>
MLS000050141::N-[4-(1,3-benzoxazol-2-yl)phenyl]-1,3-benzodioxole-5-carboxamide::N-[4-(1,3-benzoxazol-2-yl)phenyl]-piperonylamide::SMR000077237::cid_2212108

> <Target Name>
DNA repair protein RAD51 homolog 1

> <Target Source Organism According to Curator or DataSource>
Homo sapiens

> <Ki (nM)>


> <IC50 (nM)>
 85000

> <Kd (nM)>


> <EC50 (nM)>


> <kon (M-1-s-1)>


> <koff (s-1)>


> <pH>


> <Temp C>


> <Curation/DataSource>
PubChem

> <Article DOI>


> <BindingDB Entry DOI>
10.7270/Q2BV7F1T

> <PMID>


> <PubChem AID>
aid1435

> <Patent Number>


> <Authors>
PubChem, PC

> <Date of publication>
11/21/2008

> <Date in BindingDB>
6/8/2011

> <Institution>
PCMD

> <Link to Ligand in BindingDB>
http://www.bindingdb.org/bind/chemsearch/marvin/MolStructure.jsp?monomerid=56852

> <Link to Ligand-Target Pair in BindingDB>
http://www.bindingdb.org/jsp/dbsearch/PrimarySearch_ki.jsp?energyterm=kJ/mole&tag=pol&polymerid=4676&target=DNA+repair+protein+RAD51+homolog+1&column=ki&startPg=0&Increment=50&submit=Search

> <Link to Ligand-Target Pair in BindingDB>
http://www.bindingdb.org/jsp/dbsearch/PrimarySearch_ki.jsp?energyterm=kJ/mole&tag=r21&monomerid=56852&enzyme=DNA+repair+protein+RAD51+homolog+1&column=ki&startPg=0&Increment=50&submit=Search

> <Ligand HET ID in PDB>


> <PDB ID(s) for Ligand-Target Complex>


> <PubChem CID of Ligand>
2212108

> <PubChem SID of Ligand>
252636807

> <ChEBI ID of Ligand>


> <ChEMBL ID of Ligand>


> <DrugBank ID of Ligand>


> <IUPHAR_GRAC ID of Ligand>


> <KEGG ID of Ligand>


> <ZINC ID of Ligand>
ZINC02858765

> <Number of Protein Chains in Target (bigger than 1 implies a multichain complex)>
1

> <BindingDB Target Chain Sequence>
MAMQMQLEANADTSVEEESFGPQPISRLEQCGINANDVKKLEEAGFHTVEAVAYAPKKELINIKGISEAKADKILAEAAKLVPMGFTTATEFHQRRSEIIQITTGSKELDKLLQGGIETGSITEMFGEFRTGKTQICHTLAVTCQLPIDRGGGEGKAMYIDTEGTFRPERLLAVAERYGLSGSDVLDNVAYARAFNTDHQTQLLYQASAMMVESRYALLIVDSATALYRTDYSGRGELSARQMHLARFLRMLLRLADEFGVAVVITNQVVAQVDGAAMFAADPKKPIGGNIIAHASTTRLYLRKGRGETRICKIYDSPCLPEAEAMFAINADGVGDAKD

> <PDB ID(s) of Target Chain>
1N0W,5JZC,5NP7,5NWL,8BQ2,8BR2,8BSC

> <UniProt (SwissProt) Recommended Name of Target Chain>
DNA repair protein RAD51 homolog 1

> <UniProt (SwissProt) Entry Name of Target Chain>
RAD51_HUMAN

> <UniProt (SwissProt) Primary ID of Target Chain>
Q06609

> <UniProt (SwissProt) Secondary ID(s) of Target Chain>
B0FXP0 B2R8T6 Q6FHX9 Q6ZNA8 Q9BV60

> <UniProt (SwissProt) Alternative ID(s) of Target Chain>


> <UniProt (TrEMBL) Submitted Name of Target Chain>


> <UniProt (TrEMBL) Entry Name of Target Chain>


> <UniProt (TrEMBL) Primary ID of Target Chain>


> <UniProt (TrEMBL) Secondary ID(s) of Target Chain>


> <UniProt (TrEMBL) Alternative ID(s) of Target Chain>


$$$$
877545
  Mrv0541 11191410422D          

 20 22  0  0  0  0            999 V2000
    2.6199    0.4548    0.0000 S   0  0  0  0  0  0  0  0  0  0  0  0
    2.3936    3.3441    0.0000 S   0  0  0  0  0  0  0  0  0  0  0  0
    1.6500    1.7897    0.0000 O   0  0  0  0  0  0  0  0  0  0  0  0
    3.5174   -1.4822    0.0000 N   0  0  0  0  0  0  0  0  0  0  0  0
    2.8498   -0.9973    0.0000 N   0  0  0  0  0  0  0  0  0  0  0  0
    3.9299   -0.2126    0.0000 N   0  0  0  0  0  0  0  0  0  0  0  0
    3.5174   -2.3072    0.0000 C   0  0  0  0  0  0  0  0  0  0  0  0
    2.9554    1.2085    0.0000 C   0  0  0  0  0  0  0  0  0  0  0  0
    2.8028   -2.7197    0.0000 C   0  0  0  0  0  0  0  0  0  0  0  0
    4.2318   -2.7197    0.0000 C   0  0  0  0  0  0  0  0  0  0  0  0
    3.1049   -0.2126    0.0000 C   0  0  0  0  0  0  0  0  0  0  0  0
    2.4705    1.8759    0.0000 C   0  0  0  0  0  0  0  0  0  0  0  0
    2.8061    2.6296    0.0000 C   0  0  0  0  0  0  0  0  0  0  0  0
    4.1848   -0.9973    0.0000 C   0  0  0  0  0  0  0  0  0  0  0  0
    2.8028   -3.5448    0.0000 C   0  0  0  0  0  0  0  0  0  0  0  0
    4.2318   -3.5448    0.0000 C   0  0  0  0  0  0  0  0  0  0  0  0
    3.5174   -3.9573    0.0000 C   0  0  0  0  0  0  0  0  0  0  0  0
    3.6131    2.8012    0.0000 C   0  0  0  0  0  0  0  0  0  0  0  0
    3.6993    3.6216    0.0000 C   0  0  0  0  0  0  0  0  0  0  0  0
    2.9456    3.9573    0.0000 C   0  0  0  0  0  0  0  0  0  0  0  0
  1  8  1  0  0  0  0
  1 11  1  0  0  0  0
  2 13  1  0  0  0  0
  2 20  1  0  0  0  0
  3 12  2  0  0  0  0
  4  5  1  0  0  0  0
  4  7  1  0  0  0  0
  4 14  1  0  0  0  0
  5 11  2  0  0  0  0
  6 11  1  0  0  0  0
  6 14  2  0  0  0  0
  7  9  2  0  0  0  0
  7 10  1  0  0  0  0
  8 12  1  0  0  0  0
  9 15  1  0  0  0  0
 10 16  2  0  0  0  0
 12 13  1  0  0  0  0
 13 18  2  0  0  0  0
 15 17  2  0  0  0  0
 16 17  1  0  0  0  0
 18 19  1  0  0  0  0
 19 20  2  0  0  0  0
M  END
> <From>
www.bindingDB.org

> <BindingDB Reactant_set_id>
108174

> <Ligand InChI>
InChI=1S/C14H11N3OS2/c18-12(13-7-4-8-19-13)9-20-14-15-10-17(16-14)11-5-2-1-3-6-11/h1-8,10H,9H2

> <Ligand InChI Key>
UMNFXMBKXPZOQX-UHFFFAOYSA-N

> <BindingDB MonomerID>
56853

> <BindingDB Ligand Name>
2-[(1-phenyl-1,2,4-triazol-3-yl)sulfanyl]-1-thiophen-2-yl-ethanone::2-[(1-phenyl-1,2,4-triazol-3-yl)sulfanyl]-1-thiophen-2-ylethanone::2-[(1-phenyl-1,2,4-triazol-3-yl)thio]-1-(2-thienyl)ethanone::2-[(1-phenyl-1,2,4-triazol-3-yl)thio]-1-thiophen-2-ylethanone::2-[(1-phenyl-1H-1,2,4-triazol-3-yl)thio]-1-(2-thienyl)ethanone::MLS000099006::SMR000070419::cid_877545

> <Target Name>
DNA repair protein RAD51 homolog 1

> <Target Source Organism According to Curator or DataSource>
Homo sapiens

> <Ki (nM)>


> <IC50 (nM)>
 85000

> <Kd (nM)>


> <EC50 (nM)>


> <kon (M-1-s-1)>


> <koff (s-1)>


> <pH>


> <Temp C>


> <Curation/DataSource>
PubChem

> <Article DOI>


> <BindingDB Entry DOI>
10.7270/Q2BV7F1T

> <PMID>


> <PubChem AID>
aid1435

> <Patent Number>


> <Authors>
PubChem, PC

> <Date of publication>
11/21/2008

> <Date in BindingDB>
6/8/2011

> <Institution>
PCMD

> <Link to Ligand in BindingDB>
http://www.bindingdb.org/bind/chemsearch/marvin/MolStructure.jsp?monomerid=56853

> <Link to Ligand-Target Pair in BindingDB>
http://www.bindingdb.org/jsp/dbsearch/PrimarySearch_ki.jsp?energyterm=kJ/mole&tag=pol&polymerid=4676&target=DNA+repair+protein+RAD51+homolog+1&column=ki&startPg=0&Increment=50&submit=Search

> <Link to Ligand-Target Pair in BindingDB>
http://www.bindingdb.org/jsp/dbsearch/PrimarySearch_ki.jsp?energyterm=kJ/mole&tag=r21&monomerid=56853&enzyme=DNA+repair+protein+RAD51+homolog+1&column=ki&startPg=0&Increment=50&submit=Search

> <Ligand HET ID in PDB>


> <PDB ID(s) for Ligand-Target Complex>


> <PubChem CID of Ligand>
877545

> <PubChem SID of Ligand>
252636808

> <ChEBI ID of Ligand>


> <ChEMBL ID of Ligand>


> <DrugBank ID of Ligand>


> <IUPHAR_GRAC ID of Ligand>


> <KEGG ID of Ligand>


> <ZINC ID of Ligand>
ZINC00446541

> <Number of Protein Chains in Target (bigger than 1 implies a multichain complex)>
1

> <BindingDB Target Chain Sequence>
MAMQMQLEANADTSVEEESFGPQPISRLEQCGINANDVKKLEEAGFHTVEAVAYAPKKELINIKGISEAKADKILAEAAKLVPMGFTTATEFHQRRSEIIQITTGSKELDKLLQGGIETGSITEMFGEFRTGKTQICHTLAVTCQLPIDRGGGEGKAMYIDTEGTFRPERLLAVAERYGLSGSDVLDNVAYARAFNTDHQTQLLYQASAMMVESRYALLIVDSATALYRTDYSGRGELSARQMHLARFLRMLLRLADEFGVAVVITNQVVAQVDGAAMFAADPKKPIGGNIIAHASTTRLYLRKGRGETRICKIYDSPCLPEAEAMFAINADGVGDAKD

> <PDB ID(s) of Target Chain>
1N0W,5JZC,5NP7,5NWL,8BQ2,8BR2,8BSC

> <UniProt (SwissProt) Recommended Name of Target Chain>
DNA repair protein RAD51 homolog 1

> <UniProt (SwissProt) Entry Name of Target Chain>
RAD51_HUMAN

> <UniProt (SwissProt) Primary ID of Target Chain>
Q06609

> <UniProt (SwissProt) Secondary ID(s) of Target Chain>
B0FXP0 B2R8T6 Q6FHX9 Q6ZNA8 Q9BV60

> <UniProt (SwissProt) Alternative ID(s) of Target Chain>


> <UniProt (TrEMBL) Submitted Name of Target Chain>


> <UniProt (TrEMBL) Entry Name of Target Chain>


> <UniProt (TrEMBL) Primary ID of Target Chain>


> <UniProt (TrEMBL) Secondary ID(s) of Target Chain>


> <UniProt (TrEMBL) Alternative ID(s) of Target Chain>


$$$$
2979648
  Mrv0541 11191410422D          

 23 26  0  0  1  0            999 V2000
    5.9868    0.1683    0.0000 O   0  0  0  0  0  0  0  0  0  0  0  0
    5.4742   -1.4001    0.0000 O   0  0  0  0  0  0  0  0  0  0  0  0
    3.8597   -1.7404    0.0000 N   0  0  0  0  0  0  0  0  0  0  0  0
    3.8597   -3.0682    0.0000 N   0  0  0  0  0  0  0  0  0  0  0  0
    7.9707    3.0567    0.0000 C   0  0  0  0  0  0  0  0  0  0  0  0
    8.0556    2.2410    0.0000 C   0  0  0  0  0  0  0  0  0  0  0  0
    7.1688    3.2294    0.0000 C   0  0  0  0  0  0  0  0  0  0  0  0
    7.3067    1.9068    0.0000 C   0  0  0  0  0  0  0  0  0  0  0  0
    6.7557    2.5208    0.0000 C   0  0  0  0  0  0  0  0  0  0  0  0
    7.0504    1.1226    0.0000 C   0  0  0  0  0  0  0  0  0  0  0  0
    5.9485    2.3507    0.0000 C   0  0  0  0  0  0  0  0  0  0  0  0
    4.9232   -0.7861    0.0000 C   0  0  0  0  0  0  0  0  0  0  0  0
    4.1159   -0.9562    0.0000 C   0  0  0  0  0  0  0  0  0  0  0  0
    6.2432    0.9525    0.0000 C   0  0  0  0  0  0  0  0  0  0  0  0
    5.1795   -0.0019    0.0000 C   0  0  0  0  0  0  0  0  0  0  0  0
    5.6921    1.5665    0.0000 C   0  0  0  0  0  0  0  0  0  0  0  0
    3.0790   -1.9918    0.0000 C   0  0  0  0  0  0  0  0  0  0  0  0
    3.0790   -2.8169    0.0000 C   0  0  0  0  0  0  0  0  0  0  0  0
    4.3412   -2.4044    0.0000 C   0  0  0  0  0  0  0  0  0  0  0  0
    2.3645   -1.5793    0.0000 C   0  0  0  0  0  0  0  0  0  0  0  0
    2.3645   -3.2294    0.0000 C   0  0  0  0  0  0  0  0  0  0  0  0
    1.6500   -1.9918    0.0000 C   0  0  0  0  0  0  0  0  0  0  0  0
    1.6500   -2.8169    0.0000 C   0  0  0  0  0  0  0  0  0  0  0  0
  1 14  1  0  0  0  0
  1 15  1  0  0  0  0
  2 12  1  0  0  0  0
  3 13  1  0  0  0  0
  3 17  1  0  0  0  0
  3 19  1  0  0  0  0
  4 18  1  0  0  0  0
  4 19  2  0  0  0  0
  5  6  1  0  0  0  0
  5  7  1  0  0  0  0
  6  8  1  0  0  0  0
  7  9  1  0  0  0  0
  8  9  2  0  0  0  0
  8 10  1  0  0  0  0
  9 11  1  0  0  0  0
 10 14  2  0  0  0  0
 11 16  2  0  0  0  0
 12 13  1  0  0  0  0
 12 15  1  0  0  0  0
 14 16  1  0  0  0  0
 17 18  1  0  0  0  0
 17 20  2  0  0  0  0
 18 21  2  0  0  0  0
 20 22  1  0  0  0  0
 21 23  1  0  0  0  0
 22 23  2  0  0  0  0
M  END
> <From>
www.bindingDB.org

> <BindingDB Reactant_set_id>
108175

> <Ligand InChI>
InChI=1S/C19H20N2O2/c22-16(11-21-13-20-18-6-1-2-7-19(18)21)12-23-17-9-8-14-4-3-5-15(14)10-17/h1-2,6-10,13,16,22H,3-5,11-12H2

> <Ligand InChI Key>
OZCCXUVVMPVMIB-UHFFFAOYSA-N

> <BindingDB MonomerID>
56854

> <BindingDB Ligand Name>
1-(1-benzimidazolyl)-3-(2,3-dihydro-1H-inden-5-yloxy)-2-propanol::1-(1H-benzimidazol-1-yl)-3-(2,3-dihydro-1H-inden-5-yloxy)-2-propanol::1-(benzimidazol-1-yl)-3-(2,3-dihydro-1H-inden-5-yloxy)propan-2-ol::1-(benzimidazol-1-yl)-3-indan-5-yloxy-propan-2-ol::MLS000066735::SMR000082144::cid_2979648

> <Target Name>
DNA repair protein RAD51 homolog 1

> <Target Source Organism According to Curator or DataSource>
Homo sapiens

> <Ki (nM)>


> <IC50 (nM)>
 85000

> <Kd (nM)>


> <EC50 (nM)>


> <kon (M-1-s-1)>


> <koff (s-1)>


> <pH>


> <Temp C>


> <Curation/DataSource>
PubChem

> <Article DOI>


> <BindingDB Entry DOI>
10.7270/Q2BV7F1T

> <PMID>


> <PubChem AID>
aid1435

> <Patent Number>


> <Authors>
PubChem, PC

> <Date of publication>
11/21/2008

> <Date in BindingDB>
6/8/2011

> <Institution>
PCMD

> <Link to Ligand in BindingDB>
http://www.bindingdb.org/bind/chemsearch/marvin/MolStructure.jsp?monomerid=56854

> <Link to Ligand-Target Pair in BindingDB>
http://www.bindingdb.org/jsp/dbsearch/PrimarySearch_ki.jsp?energyterm=kJ/mole&tag=pol&polymerid=4676&target=DNA+repair+protein+RAD51+homolog+1&column=ki&startPg=0&Increment=50&submit=Search

> <Link to Ligand-Target Pair in BindingDB>
http://www.bindingdb.org/jsp/dbsearch/PrimarySearch_ki.jsp?energyterm=kJ/mole&tag=r21&monomerid=56854&enzyme=DNA+repair+protein+RAD51+homolog+1&column=ki&startPg=0&Increment=50&submit=Search

> <Ligand HET ID in PDB>
JVZ

> <PDB ID(s) for Ligand-Target Complex>
6R9W

> <PubChem CID of Ligand>
2979648

> <PubChem SID of Ligand>
252636809

> <ChEBI ID of Ligand>


> <ChEMBL ID of Ligand>


> <DrugBank ID of Ligand>


> <IUPHAR_GRAC ID of Ligand>


> <KEGG ID of Ligand>


> <ZINC ID of Ligand>
ZINC37867298

> <Number of Protein Chains in Target (bigger than 1 implies a multichain complex)>
1

> <BindingDB Target Chain Sequence>
MAMQMQLEANADTSVEEESFGPQPISRLEQCGINANDVKKLEEAGFHTVEAVAYAPKKELINIKGISEAKADKILAEAAKLVPMGFTTATEFHQRRSEIIQITTGSKELDKLLQGGIETGSITEMFGEFRTGKTQICHTLAVTCQLPIDRGGGEGKAMYIDTEGTFRPERLLAVAERYGLSGSDVLDNVAYARAFNTDHQTQLLYQASAMMVESRYALLIVDSATALYRTDYSGRGELSARQMHLARFLRMLLRLADEFGVAVVITNQVVAQVDGAAMFAADPKKPIGGNIIAHASTTRLYLRKGRGETRICKIYDSPCLPEAEAMFAINADGVGDAKD

> <PDB ID(s) of Target Chain>
1N0W,5JZC,5NP7,5NWL,8BQ2,8BR2,8BSC

> <UniProt (SwissProt) Recommended Name of Target Chain>
DNA repair protein RAD51 homolog 1

> <UniProt (SwissProt) Entry Name of Target Chain>
RAD51_HUMAN

> <UniProt (SwissProt) Primary ID of Target Chain>
Q06609

> <UniProt (SwissProt) Secondary ID(s) of Target Chain>
B0FXP0 B2R8T6 Q6FHX9 Q6ZNA8 Q9BV60

> <UniProt (SwissProt) Alternative ID(s) of Target Chain>


> <UniProt (TrEMBL) Submitted Name of Target Chain>


> <UniProt (TrEMBL) Entry Name of Target Chain>


> <UniProt (TrEMBL) Primary ID of Target Chain>


> <UniProt (TrEMBL) Secondary ID(s) of Target Chain>


> <UniProt (TrEMBL) Alternative ID(s) of Target Chain>


$$$$
3127949
  Mrv0541 11191410422D          

 20 21  0  0  1  0            999 V2000
    4.5741   -1.6797    0.0000 S   0  0  0  0  0  0  0  0  0  0  0  0
    6.2932   -1.7302    0.0000 S   0  0  0  0  0  0  0  0  0  0  0  0
    4.2795    1.0465    0.0000 O   0  0  0  0  0  0  0  0  0  0  0  0
    5.6378    0.6025    0.0000 O   0  0  0  0  0  0  0  0  0  0  0  0
    7.0076   -1.3177    0.0000 O   0  0  0  0  0  0  0  0  0  0  0  0
    5.5787   -2.1427    0.0000 O   0  0  0  0  0  0  0  0  0  0  0  0
    5.8806   -1.0158    0.0000 N   0  0  0  0  0  0  0  0  0  0  0  0
    2.3645   -1.4283    0.0000 C   0  0  0  0  0  0  0  0  0  0  0  0
    2.3645   -0.6033    0.0000 C   0  0  0  0  0  0  0  0  0  0  0  0
    3.0790   -1.8408    0.0000 C   0  0  0  0  0  0  0  0  0  0  0  0
    3.0790   -0.1907    0.0000 C   0  0  0  0  0  0  0  0  0  0  0  0
    3.7935   -0.6033    0.0000 C   0  0  0  0  0  0  0  0  0  0  0  0
    3.7935   -1.4283    0.0000 C   0  0  0  0  0  0  0  0  0  0  0  0
    1.6500   -1.8408    0.0000 C   0  0  0  0  0  0  0  0  0  0  0  0
    4.5741   -0.3518    0.0000 C   0  0  0  0  0  0  0  0  0  0  0  0
    5.0556   -1.0158    0.0000 C   0  0  0  0  0  0  0  0  0  0  0  0
    4.8305    0.4324    0.0000 C   0  0  0  0  0  0  0  0  0  0  0  0
    6.7057   -2.4447    0.0000 C   0  0  0  0  0  0  0  0  0  0  0  0
    4.5358    1.8306    0.0000 C   0  0  0  0  0  0  0  0  0  0  0  0
    3.9848    2.4447    0.0000 C   0  0  0  0  0  0  0  0  0  0  0  0
  1 13  1  0  0  0  0
  1 16  1  0  0  0  0
  2  5  2  0  0  0  0
  2  6  2  0  0  0  0
  2  7  1  0  0  0  0
  2 18  1  0  0  0  0
  3 17  1  0  0  0  0
  3 19  1  0  0  0  0
  4 17  2  0  0  0  0
  7 16  1  0  0  0  0
  8  9  1  0  0  0  0
  8 10  1  0  0  0  0
  8 14  1  0  0  0  0
  9 11  1  0  0  0  0
 10 13  1  0  0  0  0
 11 12  1  0  0  0  0
 12 13  2  0  0  0  0
 12 15  1  0  0  0  0
 15 16  2  0  0  0  0
 15 17  1  0  0  0  0
 19 20  1  0  0  0  0
M  END
> <From>
www.bindingDB.org

> <BindingDB Reactant_set_id>
108176

> <Ligand InChI>
InChI=1S/C13H19NO4S2/c1-4-18-13(15)11-9-6-5-8(2)7-10(9)19-12(11)14-20(3,16)17/h8,14H,4-7H2,1-3H3

> <Ligand InChI Key>
JYCBBNZKFZJOHB-UHFFFAOYSA-N

> <BindingDB MonomerID>
56855

> <BindingDB Ligand Name>
2-(methanesulfonamido)-6-methyl-4,5,6,7-tetrahydro-1-benzothiophene-3-carboxylic acid ethyl ester::2-(methanesulfonamido)-6-methyl-4,5,6,7-tetrahydrobenzothiophene-3-carboxylic acid ethyl ester::MLS000109398::SMR000105341::cid_3127949::ethyl 2-(methanesulfonamido)-6-methyl-4,5,6,7-tetrahydro-1-benzothiophene-3-carboxylate::ethyl 6-methyl-2-(methylsulfonylamino)-4,5,6,7-tetrahydro-1-benzothiophene-3-carboxylate

> <Target Name>
DNA repair protein RAD51 homolog 1

> <Target Source Organism According to Curator or DataSource>
Homo sapiens

> <Ki (nM)>


> <IC50 (nM)>
 85000

> <Kd (nM)>


> <EC50 (nM)>


> <kon (M-1-s-1)>


> <koff (s-1)>


> <pH>


> <Temp C>


> <Curation/DataSource>
PubChem

> <Article DOI>


> <BindingDB Entry DOI>
10.7270/Q2BV7F1T

> <PMID>


> <PubChem AID>
aid1435

> <Patent Number>


> <Authors>
PubChem, PC

> <Date of publication>
11/21/2008

> <Date in BindingDB>
6/8/2011

> <Institution>
PCMD

> <Link to Ligand in BindingDB>
http://www.bindingdb.org/bind/chemsearch/marvin/MolStructure.jsp?monomerid=56855

> <Link to Ligand-Target Pair in BindingDB>
http://www.bindingdb.org/jsp/dbsearch/PrimarySearch_ki.jsp?energyterm=kJ/mole&tag=pol&polymerid=4676&target=DNA+repair+protein+RAD51+homolog+1&column=ki&startPg=0&Increment=50&submit=Search

> <Link to Ligand-Target Pair in BindingDB>
http://www.bindingdb.org/jsp/dbsearch/PrimarySearch_ki.jsp?energyterm=kJ/mole&tag=r21&monomerid=56855&enzyme=DNA+repair+protein+RAD51+homolog+1&column=ki&startPg=0&Increment=50&submit=Search

> <Ligand HET ID in PDB>


> <PDB ID(s) for Ligand-Target Complex>


> <PubChem CID of Ligand>
3127949

> <PubChem SID of Ligand>
252636810

> <ChEBI ID of Ligand>


> <ChEMBL ID of Ligand>


> <DrugBank ID of Ligand>


> <IUPHAR_GRAC ID of Ligand>


> <KEGG ID of Ligand>


> <ZINC ID of Ligand>
ZINC00117826

> <Number of Protein Chains in Target (bigger than 1 implies a multichain complex)>
1

> <BindingDB Target Chain Sequence>
MAMQMQLEANADTSVEEESFGPQPISRLEQCGINANDVKKLEEAGFHTVEAVAYAPKKELINIKGISEAKADKILAEAAKLVPMGFTTATEFHQRRSEIIQITTGSKELDKLLQGGIETGSITEMFGEFRTGKTQICHTLAVTCQLPIDRGGGEGKAMYIDTEGTFRPERLLAVAERYGLSGSDVLDNVAYARAFNTDHQTQLLYQASAMMVESRYALLIVDSATALYRTDYSGRGELSARQMHLARFLRMLLRLADEFGVAVVITNQVVAQVDGAAMFAADPKKPIGGNIIAHASTTRLYLRKGRGETRICKIYDSPCLPEAEAMFAINADGVGDAKD

> <PDB ID(s) of Target Chain>
1N0W,5JZC,5NP7,5NWL,8BQ2,8BR2,8BSC

> <UniProt (SwissProt) Recommended Name of Target Chain>
DNA repair protein RAD51 homolog 1

> <UniProt (SwissProt) Entry Name of Target Chain>
RAD51_HUMAN

> <UniProt (SwissProt) Primary ID of Target Chain>
Q06609

> <UniProt (SwissProt) Secondary ID(s) of Target Chain>
B0FXP0 B2R8T6 Q6FHX9 Q6ZNA8 Q9BV60

> <UniProt (SwissProt) Alternative ID(s) of Target Chain>


> <UniProt (TrEMBL) Submitted Name of Target Chain>


> <UniProt (TrEMBL) Entry Name of Target Chain>


> <UniProt (TrEMBL) Primary ID of Target Chain>


> <UniProt (TrEMBL) Secondary ID(s) of Target Chain>


> <UniProt (TrEMBL) Alternative ID(s) of Target Chain>


$$$$
2904830
  Mrv0541 11191410422D          

 22 23  0  0  1  0            999 V2000
    3.7935   -0.4125    0.0000 S   0  0  0  0  0  0  0  0  0  0  0  0
    2.3645    2.8876    0.0000 O   0  0  0  0  0  0  0  0  0  0  0  0
    4.6185   -0.4125    0.0000 O   0  0  0  0  0  0  0  0  0  0  0  0
    2.9685   -0.4125    0.0000 O   0  0  0  0  0  0  0  0  0  0  0  0
    1.6500    1.6500    0.0000 O   0  0  0  0  0  0  0  0  0  0  0  0
    3.7935   -3.7126    0.0000 O   0  0  0  0  0  0  0  0  0  0  0  0
    3.7935    0.4125    0.0000 N   0  0  0  0  0  0  0  0  0  0  0  0
    3.0790    1.6500    0.0000 C   0  0  0  0  0  0  0  0  0  0  0  0
    3.0790    0.8250    0.0000 C   0  0  0  0  0  0  0  0  0  0  0  0
    3.7935    2.0625    0.0000 C   0  0  0  0  0  0  0  0  0  0  0  0
    4.5080    1.6500    0.0000 C   0  0  0  0  0  0  0  0  0  0  0  0
    4.5080    0.8250    0.0000 C   0  0  0  0  0  0  0  0  0  0  0  0
    2.3645    2.0625    0.0000 C   0  0  0  0  0  0  0  0  0  0  0  0
    3.7935   -1.2375    0.0000 C   0  0  0  0  0  0  0  0  0  0  0  0
    3.0790   -1.6500    0.0000 C   0  0  0  0  0  0  0  0  0  0  0  0
    4.5080   -1.6500    0.0000 C   0  0  0  0  0  0  0  0  0  0  0  0
    1.6500    3.3001    0.0000 C   0  0  0  0  0  0  0  0  0  0  0  0
    3.0790   -2.4751    0.0000 C   0  0  0  0  0  0  0  0  0  0  0  0
    4.5080   -2.4751    0.0000 C   0  0  0  0  0  0  0  0  0  0  0  0
    3.7935   -2.8876    0.0000 C   0  0  0  0  0  0  0  0  0  0  0  0
    1.6500    4.1251    0.0000 C   0  0  0  0  0  0  0  0  0  0  0  0
    4.5080   -4.1251    0.0000 C   0  0  0  0  0  0  0  0  0  0  0  0
  1  3  2  0  0  0  0
  1  4  2  0  0  0  0
  1  7  1  0  0  0  0
  1 14  1  0  0  0  0
  2 13  1  0  0  0  0
  2 17  1  0  0  0  0
  5 13  2  0  0  0  0
  6 20  1  0  0  0  0
  6 22  1  0  0  0  0
  7  9  1  0  0  0  0
  7 12  1  0  0  0  0
  8  9  1  0  0  0  0
  8 10  1  0  0  0  0
  8 13  1  0  0  0  0
 10 11  1  0  0  0  0
 11 12  1  0  0  0  0
 14 15  2  0  0  0  0
 14 16  1  0  0  0  0
 15 18  1  0  0  0  0
 16 19  2  0  0  0  0
 17 21  1  0  0  0  0
 18 20  2  0  0  0  0
 19 20  1  0  0  0  0
M  END
> <From>
www.bindingDB.org

> <BindingDB Reactant_set_id>
108177

> <Ligand InChI>
InChI=1S/C15H21NO5S/c1-3-21-15(17)12-5-4-10-16(11-12)22(18,19)14-8-6-13(20-2)7-9-14/h6-9,12H,3-5,10-11H2,1-2H3

> <Ligand InChI Key>
VEKOATLOLUSJGX-UHFFFAOYSA-N

> <BindingDB MonomerID>
56856

> <BindingDB Ligand Name>
1-(4-Methoxy-benzenesulfonyl)-piperidine-3-carboxylic acid ethyl ester::1-(4-methoxyphenyl)sulfonyl-3-piperidinecarboxylic acid ethyl ester::1-(4-methoxyphenyl)sulfonylnipecotic acid ethyl ester::MLS000123091::SMR000123628::cid_2904830::ethyl 1-(4-methoxyphenyl)sulfonylpiperidine-3-carboxylate

> <Target Name>
DNA repair protein RAD51 homolog 1

> <Target Source Organism According to Curator or DataSource>
Homo sapiens

> <Ki (nM)>


> <IC50 (nM)>
 85000

> <Kd (nM)>


> <EC50 (nM)>


> <kon (M-1-s-1)>


> <koff (s-1)>


> <pH>


> <Temp C>


> <Curation/DataSource>
PubChem

> <Article DOI>


> <BindingDB Entry DOI>
10.7270/Q2BV7F1T

> <PMID>


> <PubChem AID>
aid1435

> <Patent Number>


> <Authors>
PubChem, PC

> <Date of publication>
11/21/2008

> <Date in BindingDB>
6/8/2011

> <Institution>
PCMD

> <Link to Ligand in BindingDB>
http://www.bindingdb.org/bind/chemsearch/marvin/MolStructure.jsp?monomerid=56856

> <Link to Ligand-Target Pair in BindingDB>
http://www.bindingdb.org/jsp/dbsearch/PrimarySearch_ki.jsp?energyterm=kJ/mole&tag=pol&polymerid=4676&target=DNA+repair+protein+RAD51+homolog+1&column=ki&startPg=0&Increment=50&submit=Search

> <Link to Ligand-Target Pair in BindingDB>
http://www.bindingdb.org/jsp/dbsearch/PrimarySearch_ki.jsp?energyterm=kJ/mole&tag=r21&monomerid=56856&enzyme=DNA+repair+protein+RAD51+homolog+1&column=ki&startPg=0&Increment=50&submit=Search

> <Ligand HET ID in PDB>


> <PDB ID(s) for Ligand-Target Complex>


> <PubChem CID of Ligand>
2904830

> <PubChem SID of Ligand>
252636811

> <ChEBI ID of Ligand>


> <ChEMBL ID of Ligand>


> <DrugBank ID of Ligand>


> <IUPHAR_GRAC ID of Ligand>


> <KEGG ID of Ligand>


> <ZINC ID of Ligand>
ZINC02852084

> <Number of Protein Chains in Target (bigger than 1 implies a multichain complex)>
1

> <BindingDB Target Chain Sequence>
MAMQMQLEANADTSVEEESFGPQPISRLEQCGINANDVKKLEEAGFHTVEAVAYAPKKELINIKGISEAKADKILAEAAKLVPMGFTTATEFHQRRSEIIQITTGSKELDKLLQGGIETGSITEMFGEFRTGKTQICHTLAVTCQLPIDRGGGEGKAMYIDTEGTFRPERLLAVAERYGLSGSDVLDNVAYARAFNTDHQTQLLYQASAMMVESRYALLIVDSATALYRTDYSGRGELSARQMHLARFLRMLLRLADEFGVAVVITNQVVAQVDGAAMFAADPKKPIGGNIIAHASTTRLYLRKGRGETRICKIYDSPCLPEAEAMFAINADGVGDAKD

> <PDB ID(s) of Target Chain>
1N0W,5JZC,5NP7,5NWL,8BQ2,8BR2,8BSC

> <UniProt (SwissProt) Recommended Name of Target Chain>
DNA repair protein RAD51 homolog 1

> <UniProt (SwissProt) Entry Name of Target Chain>
RAD51_HUMAN

> <UniProt (SwissProt) Primary ID of Target Chain>
Q06609

> <UniProt (SwissProt) Secondary ID(s) of Target Chain>
B0FXP0 B2R8T6 Q6FHX9 Q6ZNA8 Q9BV60

> <UniProt (SwissProt) Alternative ID(s) of Target Chain>


> <UniProt (TrEMBL) Submitted Name of Target Chain>


> <UniProt (TrEMBL) Entry Name of Target Chain>


> <UniProt (TrEMBL) Primary ID of Target Chain>


> <UniProt (TrEMBL) Secondary ID(s) of Target Chain>


> <UniProt (TrEMBL) Alternative ID(s) of Target Chain>


$$$$
3205310
  Mrv0541 11191410422D          

 30 32  0  0  0  0            999 V2000
    8.1667    0.4010    0.0000 S   0  0  0  0  0  0  0  0  0  0  0  0
    2.4115    2.9440    0.0000 O   0  0  0  0  0  0  0  0  0  0  0  0
    4.5080    2.4590    0.0000 O   0  0  0  0  0  0  0  0  0  0  0  0
    2.3645    0.3965    0.0000 O   0  0  0  0  0  0  0  0  0  0  0  0
    6.6515    0.3965    0.0000 O   0  0  0  0  0  0  0  0  0  0  0  0
    3.7935    1.2215    0.0000 N   0  0  0  0  0  0  0  0  0  0  0  0
    3.0790   -0.8410    0.0000 N   0  0  0  0  0  0  0  0  0  0  0  0
    7.3659    1.6340    0.0000 N   0  0  0  0  0  0  0  0  0  0  0  0
    8.8341    1.5571    0.0000 N   0  0  0  0  0  0  0  0  0  0  0  0
    3.0790    1.6340    0.0000 C   0  0  0  0  0  0  0  0  0  0  0  0
    3.7935    0.3965    0.0000 C   0  0  0  0  0  0  0  0  0  0  0  0
    4.5080    1.6340    0.0000 C   0  0  0  0  0  0  0  0  0  0  0  0
    5.2224    1.2215    0.0000 C   0  0  0  0  0  0  0  0  0  0  0  0
    5.9370    1.6340    0.0000 C   0  0  0  0  0  0  0  0  0  0  0  0
    3.0790    2.4590    0.0000 C   0  0  0  0  0  0  0  0  0  0  0  0
    3.0790   -0.0160    0.0000 C   0  0  0  0  0  0  0  0  0  0  0  0
    2.3645   -1.2535    0.0000 C   0  0  0  0  0  0  0  0  0  0  0  0
    3.7465    2.9440    0.0000 C   0  0  0  0  0  0  0  0  0  0  0  0
    6.6515    1.2215    0.0000 C   0  0  0  0  0  0  0  0  0  0  0  0
    2.3645   -2.0786    0.0000 C   0  0  0  0  0  0  0  0  0  0  0  0
    3.4915    3.7286    0.0000 C   0  0  0  0  0  0  0  0  0  0  0  0
    2.6665    3.7286    0.0000 C   0  0  0  0  0  0  0  0  0  0  0  0
    1.6500   -2.4911    0.0000 C   0  0  0  0  0  0  0  0  0  0  0  0
    3.0790   -2.4911    0.0000 C   0  0  0  0  0  0  0  0  0  0  0  0
    1.6500   -3.3161    0.0000 C   0  0  0  0  0  0  0  0  0  0  0  0
    3.0790   -3.3161    0.0000 C   0  0  0  0  0  0  0  0  0  0  0  0
    2.3645   -3.7286    0.0000 C   0  0  0  0  0  0  0  0  0  0  0  0
    8.0804    1.2215    0.0000 C   0  0  0  0  0  0  0  0  0  0  0  0
    8.9736    0.2294    0.0000 C   0  0  0  0  0  0  0  0  0  0  0  0
    9.3861    0.9440    0.0000 C   0  0  0  0  0  0  0  0  0  0  0  0
  1 28  1  0  0  0  0
  1 29  1  0  0  0  0
  2 15  1  0  0  0  0
  2 22  1  0  0  0  0
  3 12  2  0  0  0  0
  4 16  2  0  0  0  0
  5 19  2  0  0  0  0
  6 10  1  0  0  0  0
  6 11  1  0  0  0  0
  6 12  1  0  0  0  0
  7 16  1  0  0  0  0
  7 17  1  0  0  0  0
  8 19  1  0  0  0  0
  8 28  1  0  0  0  0
  9 28  2  0  0  0  0
  9 30  1  0  0  0  0
 10 15  1  0  0  0  0
 11 16  1  0  0  0  0
 12 13  1  0  0  0  0
 13 14  1  0  0  0  0
 14 19  1  0  0  0  0
 15 18  2  0  0  0  0
 17 20  1  0  0  0  0
 18 21  1  0  0  0  0
 20 23  2  0  0  0  0
 20 24  1  0  0  0  0
 21 22  2  0  0  0  0
 23 25  1  0  0  0  0
 24 26  2  0  0  0  0
 25 27  2  0  0  0  0
 26 27  1  0  0  0  0
 29 30  2  0  0  0  0
M  END
> <From>
www.bindingDB.org

> <BindingDB Reactant_set_id>
108178

> <Ligand InChI>
InChI=1S/C21H22N4O4S/c26-18(24-21-22-10-12-30-21)8-9-20(28)25(14-17-7-4-11-29-17)15-19(27)23-13-16-5-2-1-3-6-16/h1-7,10-12H,8-9,13-15H2,(H,23,27)(H,22,24,26)

> <Ligand InChI Key>
ZITZNSVPEILOKD-UHFFFAOYSA-N

> <BindingDB MonomerID>
56857

> <BindingDB Ligand Name>
MLS000527521::N'-(2-furanylmethyl)-N'-[2-oxo-2-[(phenylmethyl)amino]ethyl]-N-(2-thiazolyl)butanediamide::N'-(furan-2-ylmethyl)-N'-[2-oxidanylidene-2-[(phenylmethyl)amino]ethyl]-N-(1,3-thiazol-2-yl)butanediamide::N'-[2-(benzylamino)-2-keto-ethyl]-N'-(2-furfuryl)-N-thiazol-2-yl-succinamide::N'-[2-(benzylamino)-2-oxoethyl]-N'-(furan-2-ylmethyl)-N-(1,3-thiazol-2-yl)butanediamide::N-(Benzylcarbamoyl-methyl)-N-furan-2-ylmethyl-N&#39;-thiazol-2-yl-succinamide::SMR000117995::cid_3205310

> <Target Name>
DNA repair protein RAD51 homolog 1

> <Target Source Organism According to Curator or DataSource>
Homo sapiens

> <Ki (nM)>


> <IC50 (nM)>
 85000

> <Kd (nM)>


> <EC50 (nM)>


> <kon (M-1-s-1)>


> <koff (s-1)>


> <pH>


> <Temp C>


> <Curation/DataSource>
PubChem

> <Article DOI>


> <BindingDB Entry DOI>
10.7270/Q2BV7F1T

> <PMID>


> <PubChem AID>
aid1435

> <Patent Number>


> <Authors>
PubChem, PC

> <Date of publication>
11/21/2008

> <Date in BindingDB>
6/8/2011

> <Institution>
PCMD

> <Link to Ligand in BindingDB>
http://www.bindingdb.org/bind/chemsearch/marvin/MolStructure.jsp?monomerid=56857

> <Link to Ligand-Target Pair in BindingDB>
http://www.bindingdb.org/jsp/dbsearch/PrimarySearch_ki.jsp?energyterm=kJ/mole&tag=pol&polymerid=4676&target=DNA+repair+protein+RAD51+homolog+1&column=ki&startPg=0&Increment=50&submit=Search

> <Link to Ligand-Target Pair in BindingDB>
http://www.bindingdb.org/jsp/dbsearch/PrimarySearch_ki.jsp?energyterm=kJ/mole&tag=r21&monomerid=56857&enzyme=DNA+repair+protein+RAD51+homolog+1&column=ki&startPg=0&Increment=50&submit=Search

> <Ligand HET ID in PDB>


> <PDB ID(s) for Ligand-Target Complex>


> <PubChem CID of Ligand>
3205310

> <PubChem SID of Ligand>
252636812

> <ChEBI ID of Ligand>


> <ChEMBL ID of Ligand>


> <DrugBank ID of Ligand>


> <IUPHAR_GRAC ID of Ligand>


> <KEGG ID of Ligand>


> <ZINC ID of Ligand>
ZINC08680661

> <Number of Protein Chains in Target (bigger than 1 implies a multichain complex)>
1

> <BindingDB Target Chain Sequence>
MAMQMQLEANADTSVEEESFGPQPISRLEQCGINANDVKKLEEAGFHTVEAVAYAPKKELINIKGISEAKADKILAEAAKLVPMGFTTATEFHQRRSEIIQITTGSKELDKLLQGGIETGSITEMFGEFRTGKTQICHTLAVTCQLPIDRGGGEGKAMYIDTEGTFRPERLLAVAERYGLSGSDVLDNVAYARAFNTDHQTQLLYQASAMMVESRYALLIVDSATALYRTDYSGRGELSARQMHLARFLRMLLRLADEFGVAVVITNQVVAQVDGAAMFAADPKKPIGGNIIAHASTTRLYLRKGRGETRICKIYDSPCLPEAEAMFAINADGVGDAKD

> <PDB ID(s) of Target Chain>
1N0W,5JZC,5NP7,5NWL,8BQ2,8BR2,8BSC

> <UniProt (SwissProt) Recommended Name of Target Chain>
DNA repair protein RAD51 homolog 1

> <UniProt (SwissProt) Entry Name of Target Chain>
RAD51_HUMAN

> <UniProt (SwissProt) Primary ID of Target Chain>
Q06609

> <UniProt (SwissProt) Secondary ID(s) of Target Chain>
B0FXP0 B2R8T6 Q6FHX9 Q6ZNA8 Q9BV60

> <UniProt (SwissProt) Alternative ID(s) of Target Chain>


> <UniProt (TrEMBL) Submitted Name of Target Chain>


> <UniProt (TrEMBL) Entry Name of Target Chain>


> <UniProt (TrEMBL) Primary ID of Target Chain>


> <UniProt (TrEMBL) Secondary ID(s) of Target Chain>


> <UniProt (TrEMBL) Alternative ID(s) of Target Chain>


$$$$
2787273
  Mrv0541 11191410422D          

 17 18  0  0  1  0            999 V2000
    3.8405    2.3252    0.0000 O   0  0  0  0  0  0  0  0  0  0  0  0
    4.5080   -0.6348    0.0000 O   0  0  0  0  0  0  0  0  0  0  0  0
    3.7935    0.6028    0.0000 N   0  0  0  0  0  0  0  0  0  0  0  0
    3.0790   -0.6348    0.0000 N   0  0  0  0  0  0  0  0  0  0  0  0
    4.5080    1.8403    0.0000 C   0  0  0  0  0  0  0  0  0  0  0  0
    5.1754    2.3252    0.0000 C   0  0  0  0  0  0  0  0  0  0  0  0
    4.9205    3.1098    0.0000 C   0  0  0  0  0  0  0  0  0  0  0  0
    4.0955    3.1098    0.0000 C   0  0  0  0  0  0  0  0  0  0  0  0
    4.5080    1.0153    0.0000 C   0  0  0  0  0  0  0  0  0  0  0  0
    3.7935   -0.2223    0.0000 C   0  0  0  0  0  0  0  0  0  0  0  0
    3.0790   -1.4598    0.0000 C   0  0  0  0  0  0  0  0  0  0  0  0
    2.3645   -1.8723    0.0000 C   0  0  0  0  0  0  0  0  0  0  0  0
    3.7935   -1.8723    0.0000 C   0  0  0  0  0  0  0  0  0  0  0  0
    2.3645   -2.6973    0.0000 C   0  0  0  0  0  0  0  0  0  0  0  0
    1.6500   -1.4598    0.0000 C   0  0  0  0  0  0  0  0  0  0  0  0
    3.7935   -2.6973    0.0000 C   0  0  0  0  0  0  0  0  0  0  0  0
    3.0790   -3.1098    0.0000 C   0  0  0  0  0  0  0  0  0  0  0  0
  1  5  1  0  0  0  0
  1  8  1  0  0  0  0
  2 10  2  0  0  0  0
  3  9  1  0  0  0  0
  3 10  1  0  0  0  0
  4 10  1  0  0  0  0
  4 11  1  0  0  0  0
  5  6  1  0  0  0  0
  5  9  1  0  0  0  0
  6  7  1  0  0  0  0
  7  8  1  0  0  0  0
 11 12  2  0  0  0  0
 11 13  1  0  0  0  0
 12 14  1  0  0  0  0
 12 15  1  0  0  0  0
 13 16  2  0  0  0  0
 14 17  2  0  0  0  0
 16 17  1  0  0  0  0
M  END
> <From>
www.bindingDB.org

> <BindingDB Reactant_set_id>
108179

> <Ligand InChI>
InChI=1S/C13H18N2O2/c1-10-5-2-3-7-12(10)15-13(16)14-9-11-6-4-8-17-11/h2-3,5,7,11H,4,6,8-9H2,1H3,(H2,14,15,16)

> <Ligand InChI Key>
NJABLNLHPFZSJL-UHFFFAOYSA-N

> <BindingDB MonomerID>
56858

> <BindingDB Ligand Name>
1-(2-methylphenyl)-3-(2-oxolanylmethyl)urea::1-(2-methylphenyl)-3-(oxolan-2-ylmethyl)urea::1-(Tetrahydro-furan-2-ylmethyl)-3-o-tolyl-urea::1-(o-tolyl)-3-(tetrahydrofurfuryl)urea::MLS000528171::SMR000120746::cid_2787273

> <Target Name>
DNA repair protein RAD51 homolog 1

> <Target Source Organism According to Curator or DataSource>
Homo sapiens

> <Ki (nM)>


> <IC50 (nM)>
 85000

> <Kd (nM)>


> <EC50 (nM)>


> <kon (M-1-s-1)>


> <koff (s-1)>


> <pH>


> <Temp C>


> <Curation/DataSource>
PubChem

> <Article DOI>


> <BindingDB Entry DOI>
10.7270/Q2BV7F1T

> <PMID>


> <PubChem AID>
aid1435

> <Patent Number>


> <Authors>
PubChem, PC

> <Date of publication>
11/21/2008

> <Date in BindingDB>
6/8/2011

> <Institution>
PCMD

> <Link to Ligand in BindingDB>
http://www.bindingdb.org/bind/chemsearch/marvin/MolStructure.jsp?monomerid=56858

> <Link to Ligand-Target Pair in BindingDB>
http://www.bindingdb.org/jsp/dbsearch/PrimarySearch_ki.jsp?energyterm=kJ/mole&tag=pol&polymerid=4676&target=DNA+repair+protein+RAD51+homolog+1&column=ki&startPg=0&Increment=50&submit=Search

> <Link to Ligand-Target Pair in BindingDB>
http://www.bindingdb.org/jsp/dbsearch/PrimarySearch_ki.jsp?energyterm=kJ/mole&tag=r21&monomerid=56858&enzyme=DNA+repair+protein+RAD51+homolog+1&column=ki&startPg=0&Increment=50&submit=Search

> <Ligand HET ID in PDB>


> <PDB ID(s) for Ligand-Target Complex>


> <PubChem CID of Ligand>
2787273

> <PubChem SID of Ligand>
252636813

> <ChEBI ID of Ligand>


> <ChEMBL ID of Ligand>


> <DrugBank ID of Ligand>


> <IUPHAR_GRAC ID of Ligand>


> <KEGG ID of Ligand>


> <ZINC ID of Ligand>
ZINC03958912

> <Number of Protein Chains in Target (bigger than 1 implies a multichain complex)>
1

> <BindingDB Target Chain Sequence>
MAMQMQLEANADTSVEEESFGPQPISRLEQCGINANDVKKLEEAGFHTVEAVAYAPKKELINIKGISEAKADKILAEAAKLVPMGFTTATEFHQRRSEIIQITTGSKELDKLLQGGIETGSITEMFGEFRTGKTQICHTLAVTCQLPIDRGGGEGKAMYIDTEGTFRPERLLAVAERYGLSGSDVLDNVAYARAFNTDHQTQLLYQASAMMVESRYALLIVDSATALYRTDYSGRGELSARQMHLARFLRMLLRLADEFGVAVVITNQVVAQVDGAAMFAADPKKPIGGNIIAHASTTRLYLRKGRGETRICKIYDSPCLPEAEAMFAINADGVGDAKD

> <PDB ID(s) of Target Chain>
1N0W,5JZC,5NP7,5NWL,8BQ2,8BR2,8BSC

> <UniProt (SwissProt) Recommended Name of Target Chain>
DNA repair protein RAD51 homolog 1

> <UniProt (SwissProt) Entry Name of Target Chain>
RAD51_HUMAN

> <UniProt (SwissProt) Primary ID of Target Chain>
Q06609

> <UniProt (SwissProt) Secondary ID(s) of Target Chain>
B0FXP0 B2R8T6 Q6FHX9 Q6ZNA8 Q9BV60

> <UniProt (SwissProt) Alternative ID(s) of Target Chain>


> <UniProt (TrEMBL) Submitted Name of Target Chain>


> <UniProt (TrEMBL) Entry Name of Target Chain>


> <UniProt (TrEMBL) Primary ID of Target Chain>


> <UniProt (TrEMBL) Secondary ID(s) of Target Chain>


> <UniProt (TrEMBL) Alternative ID(s) of Target Chain>


$$$$
536731
  Mrv0541 11191410422D          

 31 32  0  0  1  0            999 V2000
    3.6703   -1.3213    0.0000 S   0  0  0  0  0  0  0  0  0  0  0  0
    4.5168    4.3045    0.0000 F   0  0  0  0  0  0  0  0  0  0  0  0
    5.0098    3.2471    0.0000 F   0  0  0  0  0  0  0  0  0  0  0  0
    3.7043    4.1613    0.0000 F   0  0  0  0  0  0  0  0  0  0  0  0
    5.5402    2.6151    0.0000 O   0  0  0  0  0  0  0  0  0  0  0  0
    4.8710    1.6594    0.0000 O   0  0  0  0  0  0  0  0  0  0  0  0
    2.8452   -1.3213    0.0000 O   0  0  0  0  0  0  0  0  0  0  0  0
    4.4953   -1.3213    0.0000 O   0  0  0  0  0  0  0  0  0  0  0  0
    2.6884    1.6934    0.0000 O   0  0  0  0  0  0  0  0  0  0  0  0
    1.6500   -2.8364    0.0000 O   0  0  0  0  0  0  0  0  0  0  0  0
    3.6703    1.9787    0.0000 N   0  0  0  0  0  0  0  0  0  0  0  0
    3.1771    3.0362    0.0000 N   0  0  0  0  0  0  0  0  0  0  0  0
    3.6703   -2.1464    0.0000 N   0  0  0  0  0  0  0  0  0  0  0  0
    2.2021   -2.2233    0.0000 N   0  0  0  0  0  0  0  0  0  0  0  0
    3.9524    2.7540    0.0000 C   0  0  0  0  0  0  0  0  0  0  0  0
    4.2346    3.5293    0.0000 C   0  0  0  0  0  0  0  0  0  0  0  0
    3.6703    1.1537    0.0000 C   0  0  0  0  0  0  0  0  0  0  0  0
    4.7277    2.4718    0.0000 C   0  0  0  0  0  0  0  0  0  0  0  0
    3.6703   -0.4962    0.0000 C   0  0  0  0  0  0  0  0  0  0  0  0
    2.9558    0.7413    0.0000 C   0  0  0  0  0  0  0  0  0  0  0  0
    4.3847    0.7413    0.0000 C   0  0  0  0  0  0  0  0  0  0  0  0
    2.9558   -0.0837    0.0000 C   0  0  0  0  0  0  0  0  0  0  0  0
    4.3847   -0.0837    0.0000 C   0  0  0  0  0  0  0  0  0  0  0  0
    2.5452    2.5059    0.0000 C   0  0  0  0  0  0  0  0  0  0  0  0
    6.0705    1.9831    0.0000 C   0  0  0  0  0  0  0  0  0  0  0  0
    1.7699    2.7881    0.0000 C   0  0  0  0  0  0  0  0  0  0  0  0
    2.9558   -2.5589    0.0000 C   0  0  0  0  0  0  0  0  0  0  0  0
    6.8830    2.1264    0.0000 C   0  0  0  0  0  0  0  0  0  0  0  0
    2.8696   -3.3794    0.0000 C   0  0  0  0  0  0  0  0  0  0  0  0
    2.0625   -3.5509    0.0000 C   0  0  0  0  0  0  0  0  0  0  0  0
    1.7270   -4.3045    0.0000 C   0  0  0  0  0  0  0  0  0  0  0  0
  1  7  2  0  0  0  0
  1  8  2  0  0  0  0
  1 13  1  0  0  0  0
  1 19  1  0  0  0  0
  2 16  1  0  0  0  0
  3 16  1  0  0  0  0
  4 16  1  0  0  0  0
  5 18  1  0  0  0  0
  5 25  1  0  0  0  0
  6 18  2  0  0  0  0
  9 24  2  0  0  0  0
 10 14  1  0  0  0  0
 10 30  1  0  0  0  0
 11 15  1  0  0  0  0
 11 17  1  0  0  0  0
 12 15  1  0  0  0  0
 12 24  1  0  0  0  0
 13 27  1  0  0  0  0
 14 27  2  0  0  0  0
 15 16  1  0  0  0  0
 15 18  1  0  0  0  0
 17 20  2  0  0  0  0
 17 21  1  0  0  0  0
 19 22  2  0  0  0  0
 19 23  1  0  0  0  0
 20 22  1  0  0  0  0
 21 23  2  0  0  0  0
 24 26  1  0  0  0  0
 25 28  1  0  0  0  0
 27 29  1  0  0  0  0
 29 30  2  0  0  0  0
 30 31  1  0  0  0  0
M  END
> <From>
www.bindingDB.org

> <BindingDB Reactant_set_id>
108180

> <Ligand InChI>
InChI=1S/C17H19F3N4O6S/c1-4-29-15(26)16(17(18,19)20,21-11(3)25)22-12-5-7-13(8-6-12)31(27,28)24-14-9-10(2)30-23-14/h5-9,22H,4H2,1-3H3,(H,21,25)(H,23,24)

> <Ligand InChI Key>
IEHOCILDLZERNJ-UHFFFAOYSA-N

> <BindingDB MonomerID>
56859

> <BindingDB Ligand Name>
2-acetamido-3,3,3-trifluoro-2-[4-[(5-methyl-3-isoxazolyl)sulfamoyl]anilino]propanoic acid ethyl ester::2-acetamido-3,3,3-trifluoro-2-[4-[(5-methylisoxazol-3-yl)sulfamoyl]anilino]propionic acid ethyl ester::MLS000547529::SMR000113334::cid_536731::ethyl 2-(acetylamino)-3,3,3-trifluoro-2-(4-{[(5-methyl-3-isoxazolyl)amino]sulfonyl}anilino)propanoate::ethyl 2-acetamido-3,3,3-trifluoro-2-[4-[(5-methyl-1,2-oxazol-3-yl)sulfamoyl]anilino]propanoate::ethyl 2-acetamido-3,3,3-tris(fluoranyl)-2-[[4-[(5-methyl-1,2-oxazol-3-yl)sulfamoyl]phenyl]amino]propanoate

> <Target Name>
DNA repair protein RAD51 homolog 1

> <Target Source Organism According to Curator or DataSource>
Homo sapiens

> <Ki (nM)>


> <IC50 (nM)>
 85000

> <Kd (nM)>


> <EC50 (nM)>


> <kon (M-1-s-1)>


> <koff (s-1)>


> <pH>


> <Temp C>


> <Curation/DataSource>
PubChem

> <Article DOI>


> <BindingDB Entry DOI>
10.7270/Q2BV7F1T

> <PMID>


> <PubChem AID>
aid1435

> <Patent Number>


> <Authors>
PubChem, PC

> <Date of publication>
11/21/2008

> <Date in BindingDB>
6/8/2011

> <Institution>
PCMD

> <Link to Ligand in BindingDB>
http://www.bindingdb.org/bind/chemsearch/marvin/MolStructure.jsp?monomerid=56859

> <Link to Ligand-Target Pair in BindingDB>
http://www.bindingdb.org/jsp/dbsearch/PrimarySearch_ki.jsp?energyterm=kJ/mole&tag=pol&polymerid=4676&target=DNA+repair+protein+RAD51+homolog+1&column=ki&startPg=0&Increment=50&submit=Search

> <Link to Ligand-Target Pair in BindingDB>
http://www.bindingdb.org/jsp/dbsearch/PrimarySearch_ki.jsp?energyterm=kJ/mole&tag=r21&monomerid=56859&enzyme=DNA+repair+protein+RAD51+homolog+1&column=ki&startPg=0&Increment=50&submit=Search

> <Ligand HET ID in PDB>


> <PDB ID(s) for Ligand-Target Complex>


> <PubChem CID of Ligand>
536731

> <PubChem SID of Ligand>
252636814

> <ChEBI ID of Ligand>


> <ChEMBL ID of Ligand>


> <DrugBank ID of Ligand>


> <IUPHAR_GRAC ID of Ligand>


> <KEGG ID of Ligand>


> <ZINC ID of Ligand>
ZINC08681152

> <Number of Protein Chains in Target (bigger than 1 implies a multichain complex)>
1

> <BindingDB Target Chain Sequence>
MAMQMQLEANADTSVEEESFGPQPISRLEQCGINANDVKKLEEAGFHTVEAVAYAPKKELINIKGISEAKADKILAEAAKLVPMGFTTATEFHQRRSEIIQITTGSKELDKLLQGGIETGSITEMFGEFRTGKTQICHTLAVTCQLPIDRGGGEGKAMYIDTEGTFRPERLLAVAERYGLSGSDVLDNVAYARAFNTDHQTQLLYQASAMMVESRYALLIVDSATALYRTDYSGRGELSARQMHLARFLRMLLRLADEFGVAVVITNQVVAQVDGAAMFAADPKKPIGGNIIAHASTTRLYLRKGRGETRICKIYDSPCLPEAEAMFAINADGVGDAKD

> <PDB ID(s) of Target Chain>
1N0W,5JZC,5NP7,5NWL,8BQ2,8BR2,8BSC

> <UniProt (SwissProt) Recommended Name of Target Chain>
DNA repair protein RAD51 homolog 1

> <UniProt (SwissProt) Entry Name of Target Chain>
RAD51_HUMAN

> <UniProt (SwissProt) Primary ID of Target Chain>
Q06609

> <UniProt (SwissProt) Secondary ID(s) of Target Chain>
B0FXP0 B2R8T6 Q6FHX9 Q6ZNA8 Q9BV60

> <UniProt (SwissProt) Alternative ID(s) of Target Chain>


> <UniProt (TrEMBL) Submitted Name of Target Chain>


> <UniProt (TrEMBL) Entry Name of Target Chain>


> <UniProt (TrEMBL) Primary ID of Target Chain>


> <UniProt (TrEMBL) Secondary ID(s) of Target Chain>


> <UniProt (TrEMBL) Alternative ID(s) of Target Chain>


$$$$
5314968
  Mrv0541 11191410422D          

 22 24  0  0  0  0            999 V2000
    3.7934    2.0010    0.0000 Cl  0  0  0  0  0  0  0  0  0  0  0  0
    4.5079    0.7635    0.0000 O   0  0  0  0  0  0  0  0  0  0  0  0
    5.9503   -1.7401    0.0000 O   0  0  0  0  0  0  0  0  0  0  0  0
    4.5079   -1.7115    0.0000 O   0  0  0  0  0  0  0  0  0  0  0  0
    8.1363   -0.4967    0.0000 O   0  5  0  0  0  0  0  0  0  0  0  0
    7.4171   -1.7315    0.0000 O   0  0  0  0  0  0  0  0  0  0  0  0
    7.4202   -0.9065    0.0000 N   0  3  0  0  0  0  0  0  0  0  0  0
    5.2223   -0.4740    0.0000 C   0  0  0  0  0  0  0  0  0  0  0  0
    5.2223    0.3510    0.0000 C   0  0  0  0  0  0  0  0  0  0  0  0
    3.7934    0.3510    0.0000 C   0  0  0  0  0  0  0  0  0  0  0  0
    5.9599   -0.9152    0.0000 C   0  0  0  0  0  0  0  0  0  0  0  0
    4.5079   -0.8865    0.0000 C   0  0  0  0  0  0  0  0  0  0  0  0
    3.0789    0.7635    0.0000 C   0  0  0  0  0  0  0  0  0  0  0  0
    3.7934   -0.4740    0.0000 C   0  0  0  0  0  0  0  0  0  0  0  0
    5.9599    0.7921    0.0000 C   0  0  0  0  0  0  0  0  0  0  0  0
    6.7073   -0.4912    0.0000 C   0  0  0  0  0  0  0  0  0  0  0  0
    6.7073    0.3681    0.0000 C   0  0  0  0  0  0  0  0  0  0  0  0
    3.0789    1.5885    0.0000 C   0  0  0  0  0  0  0  0  0  0  0  0
    2.3644    0.3510    0.0000 C   0  0  0  0  0  0  0  0  0  0  0  0
    2.3644    2.0010    0.0000 C   0  0  0  0  0  0  0  0  0  0  0  0
    1.6500    0.7635    0.0000 C   0  0  0  0  0  0  0  0  0  0  0  0
    1.6500    1.5885    0.0000 C   0  0  0  0  0  0  0  0  0  0  0  0
  1 18  1  0  0  0  0
  2  9  1  0  0  0  0
  2 10  1  0  0  0  0
  3 11  1  0  0  0  0
  4 12  2  0  0  0  0
  5  7  1  0  0  0  0
  6  7  2  0  0  0  0
  7 16  1  0  0  0  0
  8  9  1  0  0  0  0
  8 11  2  0  0  0  0
  8 12  1  0  0  0  0
  9 15  2  0  0  0  0
 10 13  1  0  0  0  0
 10 14  2  0  0  0  0
 11 16  1  0  0  0  0
 12 14  1  0  0  0  0
 13 18  2  0  0  0  0
 13 19  1  0  0  0  0
 15 17  1  0  0  0  0
 16 17  2  0  0  0  0
 18 20  1  0  0  0  0
 19 21  2  0  0  0  0
 20 22  2  0  0  0  0
 21 22  1  0  0  0  0
M  CHG  2   5  -1   7   1
M  END
> <From>
www.bindingDB.org

> <BindingDB Reactant_set_id>
108181

> <Ligand InChI>
InChI=1S/C15H8ClNO5/c16-9-4-2-1-3-8(9)13-7-11(18)14-12(22-13)6-5-10(15(14)19)17(20)21/h1-7,19H

> <Ligand InChI Key>
TXSIWBDMPGEZMX-UHFFFAOYSA-N

> <BindingDB MonomerID>
56860

> <BindingDB Ligand Name>
2-(2-chlorophenyl)-5-hydroxy-6-nitro-1-benzopyran-4-one::2-(2-chlorophenyl)-5-hydroxy-6-nitro-chromone::2-(2-chlorophenyl)-5-hydroxy-6-nitrochromen-4-one::2-(2-chlorophenyl)-6-nitro-5-oxidanyl-chromen-4-one::MLS000518333::SMR000462401::cid_5314968

> <Target Name>
DNA repair protein RAD51 homolog 1

> <Target Source Organism According to Curator or DataSource>
Homo sapiens

> <Ki (nM)>


> <IC50 (nM)>
 85000

> <Kd (nM)>


> <EC50 (nM)>


> <kon (M-1-s-1)>


> <koff (s-1)>


> <pH>


> <Temp C>


> <Curation/DataSource>
PubChem

> <Article DOI>


> <BindingDB Entry DOI>
10.7270/Q2BV7F1T

> <PMID>


> <PubChem AID>
aid1435

> <Patent Number>


> <Authors>
PubChem, PC

> <Date of publication>
11/21/2008

> <Date in BindingDB>
6/8/2011

> <Institution>
PCMD

> <Link to Ligand in BindingDB>
http://www.bindingdb.org/bind/chemsearch/marvin/MolStructure.jsp?monomerid=56860

> <Link to Ligand-Target Pair in BindingDB>
http://www.bindingdb.org/jsp/dbsearch/PrimarySearch_ki.jsp?energyterm=kJ/mole&tag=pol&polymerid=4676&target=DNA+repair+protein+RAD51+homolog+1&column=ki&startPg=0&Increment=50&submit=Search

> <Link to Ligand-Target Pair in BindingDB>
http://www.bindingdb.org/jsp/dbsearch/PrimarySearch_ki.jsp?energyterm=kJ/mole&tag=r21&monomerid=56860&enzyme=DNA+repair+protein+RAD51+homolog+1&column=ki&startPg=0&Increment=50&submit=Search

> <Ligand HET ID in PDB>


> <PDB ID(s) for Ligand-Target Complex>


> <PubChem CID of Ligand>
5314968

> <PubChem SID of Ligand>
252636815

> <ChEBI ID of Ligand>


> <ChEMBL ID of Ligand>


> <DrugBank ID of Ligand>


> <IUPHAR_GRAC ID of Ligand>


> <KEGG ID of Ligand>


> <ZINC ID of Ligand>
ZINC08680120

> <Number of Protein Chains in Target (bigger than 1 implies a multichain complex)>
1

> <BindingDB Target Chain Sequence>
MAMQMQLEANADTSVEEESFGPQPISRLEQCGINANDVKKLEEAGFHTVEAVAYAPKKELINIKGISEAKADKILAEAAKLVPMGFTTATEFHQRRSEIIQITTGSKELDKLLQGGIETGSITEMFGEFRTGKTQICHTLAVTCQLPIDRGGGEGKAMYIDTEGTFRPERLLAVAERYGLSGSDVLDNVAYARAFNTDHQTQLLYQASAMMVESRYALLIVDSATALYRTDYSGRGELSARQMHLARFLRMLLRLADEFGVAVVITNQVVAQVDGAAMFAADPKKPIGGNIIAHASTTRLYLRKGRGETRICKIYDSPCLPEAEAMFAINADGVGDAKD

> <PDB ID(s) of Target Chain>
1N0W,5JZC,5NP7,5NWL,8BQ2,8BR2,8BSC

> <UniProt (SwissProt) Recommended Name of Target Chain>
DNA repair protein RAD51 homolog 1

> <UniProt (SwissProt) Entry Name of Target Chain>
RAD51_HUMAN

> <UniProt (SwissProt) Primary ID of Target Chain>
Q06609

> <UniProt (SwissProt) Secondary ID(s) of Target Chain>
B0FXP0 B2R8T6 Q6FHX9 Q6ZNA8 Q9BV60

> <UniProt (SwissProt) Alternative ID(s) of Target Chain>


> <UniProt (TrEMBL) Submitted Name of Target Chain>


> <UniProt (TrEMBL) Entry Name of Target Chain>


> <UniProt (TrEMBL) Primary ID of Target Chain>


> <UniProt (TrEMBL) Secondary ID(s) of Target Chain>


> <UniProt (TrEMBL) Alternative ID(s) of Target Chain>


$$$$
1476857
  Mrv0541 11191410422D          

 18 20  0  0  0  0            999 V2000
    6.3925    1.5287    0.0000 F   0  0  0  0  0  0  0  0  0  0  0  0
    6.9204    0.4882    0.0000 F   0  0  0  0  0  0  0  0  0  0  0  0
    5.3520    1.0007    0.0000 F   0  0  0  0  0  0  0  0  0  0  0  0
    2.9558    0.1214    0.0000 N   0  0  0  0  0  0  0  0  0  0  0  0
    5.0993   -0.2911    0.0000 N   0  0  0  0  0  0  0  0  0  0  0  0
    4.3847    0.1214    0.0000 N   0  0  0  0  0  0  0  0  0  0  0  0
    5.8799   -1.3676    0.0000 N   0  0  0  0  0  0  0  0  0  0  0  0
    6.3614   -0.7037    0.0000 N   0  0  0  0  0  0  0  0  0  0  0  0
    2.0625    1.1134    0.0000 C   0  0  0  0  0  0  0  0  0  0  0  0
    1.6500    0.3989    0.0000 C   0  0  0  0  0  0  0  0  0  0  0  0
    2.8696    0.9418    0.0000 C   0  0  0  0  0  0  0  0  0  0  0  0
    2.2021   -0.2142    0.0000 C   0  0  0  0  0  0  0  0  0  0  0  0
    3.6703   -0.2911    0.0000 C   0  0  0  0  0  0  0  0  0  0  0  0
    3.6703   -1.1162    0.0000 C   0  0  0  0  0  0  0  0  0  0  0  0
    5.0993   -1.1162    0.0000 C   0  0  0  0  0  0  0  0  0  0  0  0
    4.3847   -1.5287    0.0000 C   0  0  0  0  0  0  0  0  0  0  0  0
    5.8799   -0.0398    0.0000 C   0  0  0  0  0  0  0  0  0  0  0  0
    6.1362    0.7445    0.0000 C   0  0  0  0  0  0  0  0  0  0  0  0
  1 18  1  0  0  0  0
  2 18  1  0  0  0  0
  3 18  1  0  0  0  0
  4 11  1  0  0  0  0
  4 12  1  0  0  0  0
  4 13  1  0  0  0  0
  5  6  1  0  0  0  0
  5 15  1  0  0  0  0
  5 17  1  0  0  0  0
  6 13  2  0  0  0  0
  7  8  1  0  0  0  0
  7 15  2  0  0  0  0
  8 17  2  0  0  0  0
  9 10  1  0  0  0  0
  9 11  1  0  0  0  0
 10 12  1  0  0  0  0
 13 14  1  0  0  0  0
 14 16  2  0  0  0  0
 15 16  1  0  0  0  0
 17 18  1  0  0  0  0
M  END
> <From>
www.bindingDB.org

> <BindingDB Reactant_set_id>
108182

> <Ligand InChI>
InChI=1S/C10H10F3N5/c11-10(12,13)9-15-14-7-3-4-8(16-18(7)9)17-5-1-2-6-17/h3-4H,1-2,5-6H2

> <Ligand InChI Key>
NJTBVMOKDUAAEH-UHFFFAOYSA-N

> <BindingDB MonomerID>
56861

> <BindingDB Ligand Name>
6-(1-pyrrolidinyl)-3-(trifluoromethyl)-[1,2,4]triazolo[4,3-b]pyridazine::6-(1-pyrrolidinyl)-3-(trifluoromethyl)[1,2,4]triazolo[4,3-b]pyridazine::6-pyrrolidin-1-yl-3-(trifluoromethyl)-[1,2,4]triazolo[4,3-b]pyridazine::6-pyrrolidino-3-(trifluoromethyl)-[1,2,4]triazolo[4,3-b]pyridazine::MLS000540528::SMR000125786::cid_1476857

> <Target Name>
DNA repair protein RAD51 homolog 1

> <Target Source Organism According to Curator or DataSource>
Homo sapiens

> <Ki (nM)>


> <IC50 (nM)>
 85000

> <Kd (nM)>


> <EC50 (nM)>


> <kon (M-1-s-1)>


> <koff (s-1)>


> <pH>


> <Temp C>


> <Curation/DataSource>
PubChem

> <Article DOI>


> <BindingDB Entry DOI>
10.7270/Q2BV7F1T

> <PMID>


> <PubChem AID>
aid1435

> <Patent Number>


> <Authors>
PubChem, PC

> <Date of publication>
11/21/2008

> <Date in BindingDB>
6/8/2011

> <Institution>
PCMD

> <Link to Ligand in BindingDB>
http://www.bindingdb.org/bind/chemsearch/marvin/MolStructure.jsp?monomerid=56861

> <Link to Ligand-Target Pair in BindingDB>
http://www.bindingdb.org/jsp/dbsearch/PrimarySearch_ki.jsp?energyterm=kJ/mole&tag=pol&polymerid=4676&target=DNA+repair+protein+RAD51+homolog+1&column=ki&startPg=0&Increment=50&submit=Search

> <Link to Ligand-Target Pair in BindingDB>
http://www.bindingdb.org/jsp/dbsearch/PrimarySearch_ki.jsp?energyterm=kJ/mole&tag=r21&monomerid=56861&enzyme=DNA+repair+protein+RAD51+homolog+1&column=ki&startPg=0&Increment=50&submit=Search

> <Ligand HET ID in PDB>


> <PDB ID(s) for Ligand-Target Complex>


> <PubChem CID of Ligand>
1476857

> <PubChem SID of Ligand>
252636816

> <ChEBI ID of Ligand>


> <ChEMBL ID of Ligand>


> <DrugBank ID of Ligand>


> <IUPHAR_GRAC ID of Ligand>


> <KEGG ID of Ligand>


> <ZINC ID of Ligand>
ZINC01389151

> <Number of Protein Chains in Target (bigger than 1 implies a multichain complex)>
1

> <BindingDB Target Chain Sequence>
MAMQMQLEANADTSVEEESFGPQPISRLEQCGINANDVKKLEEAGFHTVEAVAYAPKKELINIKGISEAKADKILAEAAKLVPMGFTTATEFHQRRSEIIQITTGSKELDKLLQGGIETGSITEMFGEFRTGKTQICHTLAVTCQLPIDRGGGEGKAMYIDTEGTFRPERLLAVAERYGLSGSDVLDNVAYARAFNTDHQTQLLYQASAMMVESRYALLIVDSATALYRTDYSGRGELSARQMHLARFLRMLLRLADEFGVAVVITNQVVAQVDGAAMFAADPKKPIGGNIIAHASTTRLYLRKGRGETRICKIYDSPCLPEAEAMFAINADGVGDAKD

> <PDB ID(s) of Target Chain>
1N0W,5JZC,5NP7,5NWL,8BQ2,8BR2,8BSC

> <UniProt (SwissProt) Recommended Name of Target Chain>
DNA repair protein RAD51 homolog 1

> <UniProt (SwissProt) Entry Name of Target Chain>
RAD51_HUMAN

> <UniProt (SwissProt) Primary ID of Target Chain>
Q06609

> <UniProt (SwissProt) Secondary ID(s) of Target Chain>
B0FXP0 B2R8T6 Q6FHX9 Q6ZNA8 Q9BV60

> <UniProt (SwissProt) Alternative ID(s) of Target Chain>


> <UniProt (TrEMBL) Submitted Name of Target Chain>


> <UniProt (TrEMBL) Entry Name of Target Chain>


> <UniProt (TrEMBL) Primary ID of Target Chain>


> <UniProt (TrEMBL) Secondary ID(s) of Target Chain>


> <UniProt (TrEMBL) Alternative ID(s) of Target Chain>


$$$$
1489507
  Mrv0541 11191410422D          

 11 11  0  0  0  0            999 V2000
    3.5146    0.6103    0.0000 S   0  0  0  0  0  0  0  0  0  0  0  0
    2.6896    0.6103    0.0000 S   0  0  0  0  0  0  0  0  0  0  0  0
    1.6500   -0.4293    0.0000 S   0  0  0  0  0  0  0  0  0  0  0  0
    4.9957    0.9297    0.0000 O   0  0  0  0  0  0  0  0  0  0  0  0
    4.5542   -0.4293    0.0000 N   0  0  0  0  0  0  0  0  0  0  0  0
    3.1021   -0.6593    0.0000 N   0  0  0  0  0  0  0  0  0  0  0  0
    5.9519   -0.1322    0.0000 C   0  0  0  0  0  0  0  0  0  0  0  0
    5.1672    0.1227    0.0000 C   0  0  0  0  0  0  0  0  0  0  0  0
    6.5650    0.4198    0.0000 C   0  0  0  0  0  0  0  0  0  0  0  0
    3.7695   -0.1744    0.0000 C   0  0  0  0  0  0  0  0  0  0  0  0
    2.4347   -0.1744    0.0000 C   0  0  0  0  0  0  0  0  0  0  0  0
  1  2  1  0  0  0  0
  1 10  1  0  0  0  0
  2 11  1  0  0  0  0
  3 11  2  0  0  0  0
  4  8  2  0  0  0  0
  5  8  1  0  0  0  0
  5 10  1  0  0  0  0
  6 10  2  0  0  0  0
  6 11  1  0  0  0  0
  7  8  1  0  0  0  0
  7  9  1  0  0  0  0
M  END
> <From>
www.bindingDB.org

> <BindingDB Reactant_set_id>
108183

> <Ligand InChI>
InChI=1S/C5H6N2OS3/c1-2-3(8)6-4-7-5(9)11-10-4/h2H2,1H3,(H,6,7,8,9)

> <Ligand InChI Key>
QVVVHLYMLDLCIF-UHFFFAOYSA-N

> <BindingDB MonomerID>
56862

> <BindingDB Ligand Name>
MLS000540335::N-(3-thioxo-3H-1,2,4-dithiazol-5-yl)propanamide::N-(5-sulfanylidene-1,2,4-dithiazol-3-yl)propanamide::N-(5-thioxo-1,2,4-dithiazol-3-yl)propionamide::SMR000125593::cid_1489507

> <Target Name>
DNA repair protein RAD51 homolog 1

> <Target Source Organism According to Curator or DataSource>
Homo sapiens

> <Ki (nM)>


> <IC50 (nM)>
 85000

> <Kd (nM)>


> <EC50 (nM)>


> <kon (M-1-s-1)>


> <koff (s-1)>


> <pH>


> <Temp C>


> <Curation/DataSource>
PubChem

> <Article DOI>


> <BindingDB Entry DOI>
10.7270/Q2BV7F1T

> <PMID>


> <PubChem AID>
aid1435

> <Patent Number>


> <Authors>
PubChem, PC

> <Date of publication>
11/21/2008

> <Date in BindingDB>
6/8/2011

> <Institution>
PCMD

> <Link to Ligand in BindingDB>
http://www.bindingdb.org/bind/chemsearch/marvin/MolStructure.jsp?monomerid=56862

> <Link to Ligand-Target Pair in BindingDB>
http://www.bindingdb.org/jsp/dbsearch/PrimarySearch_ki.jsp?energyterm=kJ/mole&tag=pol&polymerid=4676&target=DNA+repair+protein+RAD51+homolog+1&column=ki&startPg=0&Increment=50&submit=Search

> <Link to Ligand-Target Pair in BindingDB>
http://www.bindingdb.org/jsp/dbsearch/PrimarySearch_ki.jsp?energyterm=kJ/mole&tag=r21&monomerid=56862&enzyme=DNA+repair+protein+RAD51+homolog+1&column=ki&startPg=0&Increment=50&submit=Search

> <Ligand HET ID in PDB>


> <PDB ID(s) for Ligand-Target Complex>


> <PubChem CID of Ligand>
1489507

> <PubChem SID of Ligand>
252636817

> <ChEBI ID of Ligand>


> <ChEMBL ID of Ligand>


> <DrugBank ID of Ligand>


> <IUPHAR_GRAC ID of Ligand>


> <KEGG ID of Ligand>


> <ZINC ID of Ligand>
ZINC08828920

> <Number of Protein Chains in Target (bigger than 1 implies a multichain complex)>
1

> <BindingDB Target Chain Sequence>
MAMQMQLEANADTSVEEESFGPQPISRLEQCGINANDVKKLEEAGFHTVEAVAYAPKKELINIKGISEAKADKILAEAAKLVPMGFTTATEFHQRRSEIIQITTGSKELDKLLQGGIETGSITEMFGEFRTGKTQICHTLAVTCQLPIDRGGGEGKAMYIDTEGTFRPERLLAVAERYGLSGSDVLDNVAYARAFNTDHQTQLLYQASAMMVESRYALLIVDSATALYRTDYSGRGELSARQMHLARFLRMLLRLADEFGVAVVITNQVVAQVDGAAMFAADPKKPIGGNIIAHASTTRLYLRKGRGETRICKIYDSPCLPEAEAMFAINADGVGDAKD

> <PDB ID(s) of Target Chain>
1N0W,5JZC,5NP7,5NWL,8BQ2,8BR2,8BSC

> <UniProt (SwissProt) Recommended Name of Target Chain>
DNA repair protein RAD51 homolog 1

> <UniProt (SwissProt) Entry Name of Target Chain>
RAD51_HUMAN

> <UniProt (SwissProt) Primary ID of Target Chain>
Q06609

> <UniProt (SwissProt) Secondary ID(s) of Target Chain>
B0FXP0 B2R8T6 Q6FHX9 Q6ZNA8 Q9BV60

> <UniProt (SwissProt) Alternative ID(s) of Target Chain>


> <UniProt (TrEMBL) Submitted Name of Target Chain>


> <UniProt (TrEMBL) Entry Name of Target Chain>


> <UniProt (TrEMBL) Primary ID of Target Chain>


> <UniProt (TrEMBL) Secondary ID(s) of Target Chain>


> <UniProt (TrEMBL) Alternative ID(s) of Target Chain>


$$$$
2967386
  Mrv0541 11191410422D          

 27 28  0  0  1  0            999 V2000
    5.2224    0.6188    0.0000 S   0  0  0  0  0  0  0  0  0  0  0  0
    1.6500   -2.2688    0.0000 F   0  0  0  0  0  0  0  0  0  0  0  0
    1.9520   -3.3958    0.0000 F   0  0  0  0  0  0  0  0  0  0  0  0
    2.7770   -1.9668    0.0000 F   0  0  0  0  0  0  0  0  0  0  0  0
    6.0475    0.6188    0.0000 O   0  0  0  0  0  0  0  0  0  0  0  0
    4.3974    0.6188    0.0000 O   0  0  0  0  0  0  0  0  0  0  0  0
    5.2224   -1.8563    0.0000 O   0  0  0  0  0  0  0  0  0  0  0  0
    5.2224    3.9188    0.0000 O   0  0  0  0  0  0  0  0  0  0  0  0
    5.2224   -0.2063    0.0000 N   0  0  0  0  0  0  0  0  0  0  0  0
    3.7935   -1.8563    0.0000 N   0  0  0  0  0  0  0  0  0  0  0  0
    4.5080   -0.6188    0.0000 C   0  0  0  0  0  0  0  0  0  0  0  0
    4.5080   -1.4438    0.0000 C   0  0  0  0  0  0  0  0  0  0  0  0
    5.2224    1.4438    0.0000 C   0  0  0  0  0  0  0  0  0  0  0  0
    3.7935   -0.2063    0.0000 C   0  0  0  0  0  0  0  0  0  0  0  0
    3.7935   -2.6813    0.0000 C   0  0  0  0  0  0  0  0  0  0  0  0
    3.0790   -3.0938    0.0000 C   0  0  0  0  0  0  0  0  0  0  0  0
    5.9370    1.8563    0.0000 C   0  0  0  0  0  0  0  0  0  0  0  0
    4.5080    1.8563    0.0000 C   0  0  0  0  0  0  0  0  0  0  0  0
    4.5080   -3.0938    0.0000 C   0  0  0  0  0  0  0  0  0  0  0  0
    5.9370    2.6813    0.0000 C   0  0  0  0  0  0  0  0  0  0  0  0
    4.5080    2.6813    0.0000 C   0  0  0  0  0  0  0  0  0  0  0  0
    5.2224    3.0938    0.0000 C   0  0  0  0  0  0  0  0  0  0  0  0
    3.0790   -3.9188    0.0000 C   0  0  0  0  0  0  0  0  0  0  0  0
    2.3645   -2.6813    0.0000 C   0  0  0  0  0  0  0  0  0  0  0  0
    4.5080   -3.9188    0.0000 C   0  0  0  0  0  0  0  0  0  0  0  0
    3.7935   -4.3313    0.0000 C   0  0  0  0  0  0  0  0  0  0  0  0
    5.9370    4.3313    0.0000 C   0  0  0  0  0  0  0  0  0  0  0  0
  1  5  2  0  0  0  0
  1  6  2  0  0  0  0
  1  9  1  0  0  0  0
  1 13  1  0  0  0  0
  2 24  1  0  0  0  0
  3 24  1  0  0  0  0
  4 24  1  0  0  0  0
  7 12  2  0  0  0  0
  8 22  1  0  0  0  0
  8 27  1  0  0  0  0
  9 11  1  0  0  0  0
 10 12  1  0  0  0  0
 10 15  1  0  0  0  0
 11 12  1  0  0  0  0
 11 14  1  0  0  0  0
 13 17  2  0  0  0  0
 13 18  1  0  0  0  0
 15 16  2  0  0  0  0
 15 19  1  0  0  0  0
 16 23  1  0  0  0  0
 16 24  1  0  0  0  0
 17 20  1  0  0  0  0
 18 21  2  0  0  0  0
 19 25  2  0  0  0  0
 20 22  2  0  0  0  0
 21 22  1  0  0  0  0
 23 26  2  0  0  0  0
 25 26  1  0  0  0  0
M  END
> <From>
www.bindingDB.org

> <BindingDB Reactant_set_id>
108184

> <Ligand InChI>
InChI=1S/C17H17F3N2O4S/c1-11(22-27(24,25)13-9-7-12(26-2)8-10-13)16(23)21-15-6-4-3-5-14(15)17(18,19)20/h3-11,22H,1-2H3,(H,21,23)

> <Ligand InChI Key>
MSKJEGPNUKFFIC-UHFFFAOYSA-N

> <BindingDB MonomerID>
56863

> <BindingDB Ligand Name>
2-[(4-methoxyphenyl)sulfonylamino]-N-[2-(trifluoromethyl)phenyl]propanamide::2-[(4-methoxyphenyl)sulfonylamino]-N-[2-(trifluoromethyl)phenyl]propionamide::MLS000531234::N~2~-[(4-methoxyphenyl)sulfonyl]-N~1~-[2-(trifluoromethyl)phenyl]alaninamide::SMR000136212::cid_2967386

> <Target Name>
DNA repair protein RAD51 homolog 1

> <Target Source Organism According to Curator or DataSource>
Homo sapiens

> <Ki (nM)>


> <IC50 (nM)>
 85000

> <Kd (nM)>


> <EC50 (nM)>


> <kon (M-1-s-1)>


> <koff (s-1)>


> <pH>


> <Temp C>


> <Curation/DataSource>
PubChem

> <Article DOI>


> <BindingDB Entry DOI>
10.7270/Q2BV7F1T

> <PMID>


> <PubChem AID>
aid1435

> <Patent Number>


> <Authors>
PubChem, PC

> <Date of publication>
11/21/2008

> <Date in BindingDB>
6/8/2011

> <Institution>
PCMD

> <Link to Ligand in BindingDB>
http://www.bindingdb.org/bind/chemsearch/marvin/MolStructure.jsp?monomerid=56863

> <Link to Ligand-Target Pair in BindingDB>
http://www.bindingdb.org/jsp/dbsearch/PrimarySearch_ki.jsp?energyterm=kJ/mole&tag=pol&polymerid=4676&target=DNA+repair+protein+RAD51+homolog+1&column=ki&startPg=0&Increment=50&submit=Search

> <Link to Ligand-Target Pair in BindingDB>
http://www.bindingdb.org/jsp/dbsearch/PrimarySearch_ki.jsp?energyterm=kJ/mole&tag=r21&monomerid=56863&enzyme=DNA+repair+protein+RAD51+homolog+1&column=ki&startPg=0&Increment=50&submit=Search

> <Ligand HET ID in PDB>


> <PDB ID(s) for Ligand-Target Complex>


> <PubChem CID of Ligand>
2967386

> <PubChem SID of Ligand>
252636818

> <ChEBI ID of Ligand>


> <ChEMBL ID of Ligand>


> <DrugBank ID of Ligand>


> <IUPHAR_GRAC ID of Ligand>


> <KEGG ID of Ligand>


> <ZINC ID of Ligand>
ZINC02870576

> <Number of Protein Chains in Target (bigger than 1 implies a multichain complex)>
1

> <BindingDB Target Chain Sequence>
MAMQMQLEANADTSVEEESFGPQPISRLEQCGINANDVKKLEEAGFHTVEAVAYAPKKELINIKGISEAKADKILAEAAKLVPMGFTTATEFHQRRSEIIQITTGSKELDKLLQGGIETGSITEMFGEFRTGKTQICHTLAVTCQLPIDRGGGEGKAMYIDTEGTFRPERLLAVAERYGLSGSDVLDNVAYARAFNTDHQTQLLYQASAMMVESRYALLIVDSATALYRTDYSGRGELSARQMHLARFLRMLLRLADEFGVAVVITNQVVAQVDGAAMFAADPKKPIGGNIIAHASTTRLYLRKGRGETRICKIYDSPCLPEAEAMFAINADGVGDAKD

> <PDB ID(s) of Target Chain>
1N0W,5JZC,5NP7,5NWL,8BQ2,8BR2,8BSC

> <UniProt (SwissProt) Recommended Name of Target Chain>
DNA repair protein RAD51 homolog 1

> <UniProt (SwissProt) Entry Name of Target Chain>
RAD51_HUMAN

> <UniProt (SwissProt) Primary ID of Target Chain>
Q06609

> <UniProt (SwissProt) Secondary ID(s) of Target Chain>
B0FXP0 B2R8T6 Q6FHX9 Q6ZNA8 Q9BV60

> <UniProt (SwissProt) Alternative ID(s) of Target Chain>


> <UniProt (TrEMBL) Submitted Name of Target Chain>


> <UniProt (TrEMBL) Entry Name of Target Chain>


> <UniProt (TrEMBL) Primary ID of Target Chain>


> <UniProt (TrEMBL) Secondary ID(s) of Target Chain>


> <UniProt (TrEMBL) Alternative ID(s) of Target Chain>


$$$$
2792414
  Mrv0541 11191410422D          

 19 20  0  0  1  0            999 V2000
    3.7934   -1.8210    0.0000 O   0  0  0  0  0  0  0  0  0  0  0  0
    5.2223   -1.8210    0.0000 O   0  0  0  0  0  0  0  0  0  0  0  0
    5.2223   -0.1710    0.0000 N   0  0  0  0  0  0  0  0  0  0  0  0
    4.5079    1.0665    0.0000 N   0  0  0  0  0  0  0  0  0  0  0  0
    5.2223    2.3040    0.0000 N   0  0  0  0  0  0  0  0  0  0  0  0
    3.7934   -0.1710    0.0000 C   0  0  0  0  0  0  0  0  0  0  0  0
    4.5079   -0.5835    0.0000 C   0  0  0  0  0  0  0  0  0  0  0  0
    3.0789   -0.5835    0.0000 C   0  0  0  0  0  0  0  0  0  0  0  0
    2.3644   -0.1710    0.0000 C   0  0  0  0  0  0  0  0  0  0  0  0
    5.2223    0.6540    0.0000 C   0  0  0  0  0  0  0  0  0  0  0  0
    4.5079   -1.4085    0.0000 C   0  0  0  0  0  0  0  0  0  0  0  0
    5.9369    1.0665    0.0000 C   0  0  0  0  0  0  0  0  0  0  0  0
    1.6500   -0.5835    0.0000 C   0  0  0  0  0  0  0  0  0  0  0  0
    5.9369    1.8915    0.0000 C   0  0  0  0  0  0  0  0  0  0  0  0
    6.6743    0.6254    0.0000 C   0  0  0  0  0  0  0  0  0  0  0  0
    6.6743    2.3325    0.0000 C   0  0  0  0  0  0  0  0  0  0  0  0
    7.4219    1.0492    0.0000 C   0  0  0  0  0  0  0  0  0  0  0  0
    4.5079    1.8915    0.0000 C   0  0  0  0  0  0  0  0  0  0  0  0
    7.4219    1.9086    0.0000 C   0  0  0  0  0  0  0  0  0  0  0  0
  1 11  1  0  0  0  0
  2 11  2  0  0  0  0
  3  7  1  0  0  0  0
  3 10  1  0  0  0  0
  4 10  1  0  0  0  0
  4 18  2  0  0  0  0
  5 14  2  0  0  0  0
  5 18  1  0  0  0  0
  6  7  1  0  0  0  0
  6  8  1  0  0  0  0
  7 11  1  0  0  0  0
  8  9  1  0  0  0  0
  9 13  1  0  0  0  0
 10 12  2  0  0  0  0
 12 14  1  0  0  0  0
 12 15  1  0  0  0  0
 14 16  1  0  0  0  0
 15 17  2  0  0  0  0
 16 19  2  0  0  0  0
 17 19  1  0  0  0  0
M  END
> <From>
www.bindingDB.org

> <BindingDB Reactant_set_id>
108185

> <Ligand InChI>
InChI=1S/C14H17N3O2/c1-2-3-7-12(14(18)19)17-13-10-6-4-5-8-11(10)15-9-16-13/h4-6,8-9,12H,2-3,7H2,1H3,(H,18,19)(H,15,16,17)

> <Ligand InChI Key>
GRSZPSULRZQMOD-UHFFFAOYSA-N

> <BindingDB MonomerID>
56864

> <BindingDB Ligand Name>
2-(4-quinazolinylamino)hexanoic acid::2-(quinazolin-4-ylamino)hexanoic acid::MLS000531323::N-4-quinazolinylnorleucine::SMR000136301::cid_2792414

> <Target Name>
DNA repair protein RAD51 homolog 1

> <Target Source Organism According to Curator or DataSource>
Homo sapiens

> <Ki (nM)>


> <IC50 (nM)>
 42500

> <Kd (nM)>


> <EC50 (nM)>


> <kon (M-1-s-1)>


> <koff (s-1)>


> <pH>


> <Temp C>


> <Curation/DataSource>
PubChem

> <Article DOI>


> <BindingDB Entry DOI>
10.7270/Q2BV7F1T

> <PMID>


> <PubChem AID>
aid1435

> <Patent Number>


> <Authors>
PubChem, PC

> <Date of publication>
11/21/2008

> <Date in BindingDB>
6/8/2011

> <Institution>
PCMD

> <Link to Ligand in BindingDB>
http://www.bindingdb.org/bind/chemsearch/marvin/MolStructure.jsp?monomerid=56864

> <Link to Ligand-Target Pair in BindingDB>
http://www.bindingdb.org/jsp/dbsearch/PrimarySearch_ki.jsp?energyterm=kJ/mole&tag=pol&polymerid=4676&target=DNA+repair+protein+RAD51+homolog+1&column=ki&startPg=0&Increment=50&submit=Search

> <Link to Ligand-Target Pair in BindingDB>
http://www.bindingdb.org/jsp/dbsearch/PrimarySearch_ki.jsp?energyterm=kJ/mole&tag=r21&monomerid=56864&enzyme=DNA+repair+protein+RAD51+homolog+1&column=ki&startPg=0&Increment=50&submit=Search

> <Ligand HET ID in PDB>


> <PDB ID(s) for Ligand-Target Complex>


> <PubChem CID of Ligand>
2792414

> <PubChem SID of Ligand>
252636819

> <ChEBI ID of Ligand>


> <ChEMBL ID of Ligand>


> <DrugBank ID of Ligand>


> <IUPHAR_GRAC ID of Ligand>


> <KEGG ID of Ligand>


> <ZINC ID of Ligand>
ZINC01912276

> <Number of Protein Chains in Target (bigger than 1 implies a multichain complex)>
1

> <BindingDB Target Chain Sequence>
MAMQMQLEANADTSVEEESFGPQPISRLEQCGINANDVKKLEEAGFHTVEAVAYAPKKELINIKGISEAKADKILAEAAKLVPMGFTTATEFHQRRSEIIQITTGSKELDKLLQGGIETGSITEMFGEFRTGKTQICHTLAVTCQLPIDRGGGEGKAMYIDTEGTFRPERLLAVAERYGLSGSDVLDNVAYARAFNTDHQTQLLYQASAMMVESRYALLIVDSATALYRTDYSGRGELSARQMHLARFLRMLLRLADEFGVAVVITNQVVAQVDGAAMFAADPKKPIGGNIIAHASTTRLYLRKGRGETRICKIYDSPCLPEAEAMFAINADGVGDAKD

> <PDB ID(s) of Target Chain>
1N0W,5JZC,5NP7,5NWL,8BQ2,8BR2,8BSC

> <UniProt (SwissProt) Recommended Name of Target Chain>
DNA repair protein RAD51 homolog 1

> <UniProt (SwissProt) Entry Name of Target Chain>
RAD51_HUMAN

> <UniProt (SwissProt) Primary ID of Target Chain>
Q06609

> <UniProt (SwissProt) Secondary ID(s) of Target Chain>
B0FXP0 B2R8T6 Q6FHX9 Q6ZNA8 Q9BV60

> <UniProt (SwissProt) Alternative ID(s) of Target Chain>


> <UniProt (TrEMBL) Submitted Name of Target Chain>


> <UniProt (TrEMBL) Entry Name of Target Chain>


> <UniProt (TrEMBL) Primary ID of Target Chain>


> <UniProt (TrEMBL) Secondary ID(s) of Target Chain>


> <UniProt (TrEMBL) Alternative ID(s) of Target Chain>


$$$$
1602827
  Mrv0541 11191410422D          

 34 36  0  0  0  0            999 V2000
    3.0790   -2.8876    0.0000 O   0  0  0  0  0  0  0  0  0  0  0  0
    5.2224    0.8250    0.0000 O   0  0  0  0  0  0  0  0  0  0  0  0
    5.2224    4.1251    0.0000 O   0  0  0  0  0  0  0  0  0  0  0  0
    3.7935   -0.8250    0.0000 O   0  0  0  0  0  0  0  0  0  0  0  0
    4.5080   -2.0625    0.0000 N   0  0  0  0  0  0  0  0  0  0  0  0
    5.9370   -2.0625    0.0000 N   0  0  0  0  0  0  0  0  0  0  0  0
    5.2224   -0.8250    0.0000 N   0  0  0  0  0  0  0  0  0  0  0  0
    7.3659   -2.0625    0.0000 N   0  0  0  0  0  0  0  0  0  0  0  0
    6.6515   -0.8250    0.0000 N   0  0  0  0  0  0  0  0  0  0  0  0
    4.5080   -2.8876    0.0000 C   0  0  0  0  0  0  0  0  0  0  0  0
    3.7935   -3.3001    0.0000 C   0  0  0  0  0  0  0  0  0  0  0  0
    2.3645   -3.3001    0.0000 C   0  0  0  0  0  0  0  0  0  0  0  0
    2.3645   -4.1251    0.0000 C   0  0  0  0  0  0  0  0  0  0  0  0
    5.2224   -3.3001    0.0000 C   0  0  0  0  0  0  0  0  0  0  0  0
    3.7935   -4.1251    0.0000 C   0  0  0  0  0  0  0  0  0  0  0  0
    5.2224   -1.6500    0.0000 C   0  0  0  0  0  0  0  0  0  0  0  0
    5.2224   -4.1251    0.0000 C   0  0  0  0  0  0  0  0  0  0  0  0
    4.5080   -4.5376    0.0000 C   0  0  0  0  0  0  0  0  0  0  0  0
    1.6500   -4.5376    0.0000 C   0  0  0  0  0  0  0  0  0  0  0  0
    6.6515   -1.6500    0.0000 C   0  0  0  0  0  0  0  0  0  0  0  0
    8.0804   -1.6500    0.0000 C   0  0  0  0  0  0  0  0  0  0  0  0
    7.3659   -0.4125    0.0000 C   0  0  0  0  0  0  0  0  0  0  0  0
    8.0804   -0.8250    0.0000 C   0  0  0  0  0  0  0  0  0  0  0  0
    4.5080    0.4125    0.0000 C   0  0  0  0  0  0  0  0  0  0  0  0
    4.5080   -0.4125    0.0000 C   0  0  0  0  0  0  0  0  0  0  0  0
    5.2224    1.6500    0.0000 C   0  0  0  0  0  0  0  0  0  0  0  0
    8.7949   -2.0625    0.0000 C   0  0  0  0  0  0  0  0  0  0  0  0
    7.3659    0.4125    0.0000 C   0  0  0  0  0  0  0  0  0  0  0  0
    5.9370    2.0625    0.0000 C   0  0  0  0  0  0  0  0  0  0  0  0
    4.5080    2.0625    0.0000 C   0  0  0  0  0  0  0  0  0  0  0  0
    5.2224    3.3001    0.0000 C   0  0  0  0  0  0  0  0  0  0  0  0
    5.9370    2.8876    0.0000 C   0  0  0  0  0  0  0  0  0  0  0  0
    4.5080    2.8876    0.0000 C   0  0  0  0  0  0  0  0  0  0  0  0
    5.9370    4.5376    0.0000 C   0  0  0  0  0  0  0  0  0  0  0  0
  1 11  1  0  0  0  0
  1 12  1  0  0  0  0
  2 24  1  0  0  0  0
  2 26  1  0  0  0  0
  3 31  1  0  0  0  0
  3 34  1  0  0  0  0
  4 25  2  0  0  0  0
  5 10  1  4  0  0  0
  5 16  2  0  0  0  0
  6 16  1  0  0  0  0
  6 20  1  0  0  0  0
  7 16  1  0  0  0  0
  7 25  1  0  0  0  0
  8 20  2  0  0  0  0
  8 21  1  0  0  0  0
  9 20  1  0  0  0  0
  9 22  2  0  0  0  0
 10 11  2  0  0  0  0
 10 14  1  0  0  0  0
 11 15  1  0  0  0  0
 12 13  1  0  0  0  0
 13 19  1  0  0  0  0
 14 17  2  0  0  0  0
 15 18  2  0  0  0  0
 17 18  1  0  0  0  0
 21 23  2  0  0  0  0
 21 27  1  0  0  0  0
 22 23  1  0  0  0  0
 22 28  1  0  0  0  0
 24 25  1  0  0  0  0
 26 29  2  0  0  0  0
 26 30  1  0  0  0  0
 29 32  1  0  0  0  0
 30 33  2  0  0  0  0
 31 32  2  0  0  0  0
 31 33  1  0  0  0  0
M  END
> <From>
www.bindingDB.org

> <BindingDB Reactant_set_id>
108186

> <Ligand InChI>
InChI=1S/C25H29N5O4/c1-5-14-33-22-9-7-6-8-21(22)28-25(30-24-26-17(2)15-18(3)27-24)29-23(31)16-34-20-12-10-19(32-4)11-13-20/h6-13,15H,5,14,16H2,1-4H3,(H2,26,27,28,29,30,31)

> <Ligand InChI Key>
PYKVRHLPVZGMEB-UHFFFAOYSA-N

> <BindingDB MonomerID>
56865

> <BindingDB Ligand Name>
MLS000533909::N-[[(4,6-dimethyl-2-pyrimidinyl)amino]-(2-propoxyanilino)methylidene]-2-(4-methoxyphenoxy)acetamide::N-[[(4,6-dimethylpyrimidin-2-yl)amino]-(2-propoxyanilino)methylene]-2-(4-methoxyphenoxy)acetamide::N-[[(4,6-dimethylpyrimidin-2-yl)amino]-(2-propoxyanilino)methylidene]-2-(4-methoxyphenoxy)acetamide::N-[[(4,6-dimethylpyrimidin-2-yl)amino]-[(2-propoxyphenyl)amino]methylidene]-2-(4-methoxyphenoxy)ethanamide::N-{[(4,6-dimethyl-2-pyrimidinyl)amino][(2-propoxyphenyl)amino]methylene}-2-(4-methoxyphenoxy)acetamide::SMR000141346::cid_1602827

> <Target Name>
DNA repair protein RAD51 homolog 1

> <Target Source Organism According to Curator or DataSource>
Homo sapiens

> <Ki (nM)>


> <IC50 (nM)>
 85000

> <Kd (nM)>


> <EC50 (nM)>


> <kon (M-1-s-1)>


> <koff (s-1)>


> <pH>


> <Temp C>


> <Curation/DataSource>
PubChem

> <Article DOI>


> <BindingDB Entry DOI>
10.7270/Q2BV7F1T

> <PMID>


> <PubChem AID>
aid1435

> <Patent Number>


> <Authors>
PubChem, PC

> <Date of publication>
11/21/2008

> <Date in BindingDB>
6/8/2011

> <Institution>
PCMD

> <Link to Ligand in BindingDB>
http://www.bindingdb.org/bind/chemsearch/marvin/MolStructure.jsp?monomerid=56865

> <Link to Ligand-Target Pair in BindingDB>
http://www.bindingdb.org/jsp/dbsearch/PrimarySearch_ki.jsp?energyterm=kJ/mole&tag=pol&polymerid=4676&target=DNA+repair+protein+RAD51+homolog+1&column=ki&startPg=0&Increment=50&submit=Search

> <Link to Ligand-Target Pair in BindingDB>
http://www.bindingdb.org/jsp/dbsearch/PrimarySearch_ki.jsp?energyterm=kJ/mole&tag=r21&monomerid=56865&enzyme=DNA+repair+protein+RAD51+homolog+1&column=ki&startPg=0&Increment=50&submit=Search

> <Ligand HET ID in PDB>


> <PDB ID(s) for Ligand-Target Complex>


> <PubChem CID of Ligand>
1602827

> <PubChem SID of Ligand>
252636820

> <ChEBI ID of Ligand>


> <ChEMBL ID of Ligand>


> <DrugBank ID of Ligand>


> <IUPHAR_GRAC ID of Ligand>


> <KEGG ID of Ligand>


> <ZINC ID of Ligand>
ZINC18154321

> <Number of Protein Chains in Target (bigger than 1 implies a multichain complex)>
1

> <BindingDB Target Chain Sequence>
MAMQMQLEANADTSVEEESFGPQPISRLEQCGINANDVKKLEEAGFHTVEAVAYAPKKELINIKGISEAKADKILAEAAKLVPMGFTTATEFHQRRSEIIQITTGSKELDKLLQGGIETGSITEMFGEFRTGKTQICHTLAVTCQLPIDRGGGEGKAMYIDTEGTFRPERLLAVAERYGLSGSDVLDNVAYARAFNTDHQTQLLYQASAMMVESRYALLIVDSATALYRTDYSGRGELSARQMHLARFLRMLLRLADEFGVAVVITNQVVAQVDGAAMFAADPKKPIGGNIIAHASTTRLYLRKGRGETRICKIYDSPCLPEAEAMFAINADGVGDAKD

> <PDB ID(s) of Target Chain>
1N0W,5JZC,5NP7,5NWL,8BQ2,8BR2,8BSC

> <UniProt (SwissProt) Recommended Name of Target Chain>
DNA repair protein RAD51 homolog 1

> <UniProt (SwissProt) Entry Name of Target Chain>
RAD51_HUMAN

> <UniProt (SwissProt) Primary ID of Target Chain>
Q06609

> <UniProt (SwissProt) Secondary ID(s) of Target Chain>
B0FXP0 B2R8T6 Q6FHX9 Q6ZNA8 Q9BV60

> <UniProt (SwissProt) Alternative ID(s) of Target Chain>


> <UniProt (TrEMBL) Submitted Name of Target Chain>


> <UniProt (TrEMBL) Entry Name of Target Chain>


> <UniProt (TrEMBL) Primary ID of Target Chain>


> <UniProt (TrEMBL) Secondary ID(s) of Target Chain>


> <UniProt (TrEMBL) Alternative ID(s) of Target Chain>


$$$$
2964209
  Mrv0541 11191410422D          

 33 36  0  0  1  0            999 V2000
    3.7935   -0.6330    0.0000 S   0  0  0  0  0  0  0  0  0  0  0  0
    3.3810    0.0814    0.0000 O   0  0  0  0  0  0  0  0  0  0  0  0
    4.2060   -1.3476    0.0000 O   0  0  0  0  0  0  0  0  0  0  0  0
    7.3659   -0.2205    0.0000 O   0  0  0  0  0  0  0  0  0  0  0  0
   10.2239   -0.2205    0.0000 O   0  0  0  0  0  0  0  0  0  0  0  0
    3.0790   -1.0455    0.0000 N   0  0  0  0  0  0  0  0  0  0  0  0
    6.6515    1.0170    0.0000 N   0  0  0  0  0  0  0  0  0  0  0  0
    9.5094    1.0170    0.0000 N   0  0  0  0  0  0  0  0  0  0  0  0
   10.2239    2.2545    0.0000 N   0  0  0  0  0  0  0  0  0  0  0  0
    2.3645   -0.6330    0.0000 C   0  0  0  0  0  0  0  0  0  0  0  0
    3.0790   -1.8706    0.0000 C   0  0  0  0  0  0  0  0  0  0  0  0
    2.3645   -2.2831    0.0000 C   0  0  0  0  0  0  0  0  0  0  0  0
    1.6500   -1.0455    0.0000 C   0  0  0  0  0  0  0  0  0  0  0  0
    1.6500   -1.8706    0.0000 C   0  0  0  0  0  0  0  0  0  0  0  0
    3.7935   -2.2831    0.0000 C   0  0  0  0  0  0  0  0  0  0  0  0
    2.3645    0.1920    0.0000 C   0  0  0  0  0  0  0  0  0  0  0  0
    4.5080   -0.2205    0.0000 C   0  0  0  0  0  0  0  0  0  0  0  0
    5.2224   -0.6330    0.0000 C   0  0  0  0  0  0  0  0  0  0  0  0
    4.5080    0.6045    0.0000 C   0  0  0  0  0  0  0  0  0  0  0  0
    5.9370   -0.2205    0.0000 C   0  0  0  0  0  0  0  0  0  0  0  0
    5.2224    1.0170    0.0000 C   0  0  0  0  0  0  0  0  0  0  0  0
    5.9370    0.6045    0.0000 C   0  0  0  0  0  0  0  0  0  0  0  0
    7.3659    0.6045    0.0000 C   0  0  0  0  0  0  0  0  0  0  0  0
    8.0804    1.0170    0.0000 C   0  0  0  0  0  0  0  0  0  0  0  0
    8.7949    0.6045    0.0000 C   0  0  0  0  0  0  0  0  0  0  0  0
   10.2239    0.6045    0.0000 C   0  0  0  0  0  0  0  0  0  0  0  0
   10.9383    1.0170    0.0000 C   0  0  0  0  0  0  0  0  0  0  0  0
    9.5094    1.8420    0.0000 C   0  0  0  0  0  0  0  0  0  0  0  0
   10.9383    1.8420    0.0000 C   0  0  0  0  0  0  0  0  0  0  0  0
   11.6759    0.5759    0.0000 C   0  0  0  0  0  0  0  0  0  0  0  0
   11.6759    2.2831    0.0000 C   0  0  0  0  0  0  0  0  0  0  0  0
   12.4234    0.9998    0.0000 C   0  0  0  0  0  0  0  0  0  0  0  0
   12.4234    1.8592    0.0000 C   0  0  0  0  0  0  0  0  0  0  0  0
  1  2  2  0  0  0  0
  1  3  2  0  0  0  0
  1  6  1  0  0  0  0
  1 17  1  0  0  0  0
  4 23  2  0  0  0  0
  5 26  2  0  0  0  0
  6 10  1  0  0  0  0
  6 11  1  0  0  0  0
  7 22  1  0  0  0  0
  7 23  1  0  0  0  0
  8 25  1  0  0  0  0
  8 26  1  0  0  0  0
  8 28  1  0  0  0  0
  9 28  2  0  0  0  0
  9 29  1  0  0  0  0
 10 13  1  0  0  0  0
 10 16  1  0  0  0  0
 11 12  1  0  0  0  0
 11 15  1  0  0  0  0
 12 14  1  0  0  0  0
 13 14  1  0  0  0  0
 17 18  2  0  0  0  0
 17 19  1  0  0  0  0
 18 20  1  0  0  0  0
 19 21  2  0  0  0  0
 20 22  2  0  0  0  0
 21 22  1  0  0  0  0
 23 24  1  0  0  0  0
 24 25  1  0  0  0  0
 26 27  1  0  0  0  0
 27 29  1  0  0  0  0
 27 30  2  0  0  0  0
 29 31  2  0  0  0  0
 30 32  1  0  0  0  0
 31 33  1  0  0  0  0
 32 33  2  0  0  0  0
M  END
> <From>
www.bindingDB.org

> <BindingDB Reactant_set_id>
108187

> <Ligand InChI>
InChI=1S/C24H28N4O4S/c1-17-6-5-7-18(2)28(17)33(31,32)20-12-10-19(11-13-20)26-23(29)14-15-27-16-25-22-9-4-3-8-21(22)24(27)30/h3-4,8-13,16-18H,5-7,14-15H2,1-2H3,(H,26,29)

> <Ligand InChI Key>
MAPGULUJVXKINW-UHFFFAOYSA-N

> <BindingDB MonomerID>
56866

> <BindingDB Ligand Name>
MLS000531165::N-[4-(2,6-dimethylpiperidin-1-yl)sulfonylphenyl]-3-(4-oxidanylidenequinazolin-3-yl)propanamide::N-[4-(2,6-dimethylpiperidin-1-yl)sulfonylphenyl]-3-(4-oxoquinazolin-3-yl)propanamide::N-[4-(2,6-dimethylpiperidino)sulfonylphenyl]-3-(4-ketoquinazolin-3-yl)propionamide::N-[4-[(2,6-dimethyl-1-piperidinyl)sulfonyl]phenyl]-3-(4-oxo-3-quinazolinyl)propanamide::N-{4-[(2,6-dimethyl-1-piperidinyl)sulfonyl]phenyl}-3-(4-oxo-3(4H)-quinazolinyl)propanamide::SMR000136143::cid_2964209

> <Target Name>
DNA repair protein RAD51 homolog 1

> <Target Source Organism According to Curator or DataSource>
Homo sapiens

> <Ki (nM)>


> <IC50 (nM)>
 85000

> <Kd (nM)>


> <EC50 (nM)>


> <kon (M-1-s-1)>


> <koff (s-1)>


> <pH>


> <Temp C>


> <Curation/DataSource>
PubChem

> <Article DOI>


> <BindingDB Entry DOI>
10.7270/Q2BV7F1T

> <PMID>


> <PubChem AID>
aid1435

> <Patent Number>


> <Authors>
PubChem, PC

> <Date of publication>
11/21/2008

> <Date in BindingDB>
6/8/2011

> <Institution>
PCMD

> <Link to Ligand in BindingDB>
http://www.bindingdb.org/bind/chemsearch/marvin/MolStructure.jsp?monomerid=56866

> <Link to Ligand-Target Pair in BindingDB>
http://www.bindingdb.org/jsp/dbsearch/PrimarySearch_ki.jsp?energyterm=kJ/mole&tag=pol&polymerid=4676&target=DNA+repair+protein+RAD51+homolog+1&column=ki&startPg=0&Increment=50&submit=Search

> <Link to Ligand-Target Pair in BindingDB>
http://www.bindingdb.org/jsp/dbsearch/PrimarySearch_ki.jsp?energyterm=kJ/mole&tag=r21&monomerid=56866&enzyme=DNA+repair+protein+RAD51+homolog+1&column=ki&startPg=0&Increment=50&submit=Search

> <Ligand HET ID in PDB>


> <PDB ID(s) for Ligand-Target Complex>


> <PubChem CID of Ligand>
2964209

> <PubChem SID of Ligand>
252636821

> <ChEBI ID of Ligand>


> <ChEMBL ID of Ligand>


> <DrugBank ID of Ligand>


> <IUPHAR_GRAC ID of Ligand>


> <KEGG ID of Ligand>


> <ZINC ID of Ligand>
ZINC18227633

> <Number of Protein Chains in Target (bigger than 1 implies a multichain complex)>
1

> <BindingDB Target Chain Sequence>
MAMQMQLEANADTSVEEESFGPQPISRLEQCGINANDVKKLEEAGFHTVEAVAYAPKKELINIKGISEAKADKILAEAAKLVPMGFTTATEFHQRRSEIIQITTGSKELDKLLQGGIETGSITEMFGEFRTGKTQICHTLAVTCQLPIDRGGGEGKAMYIDTEGTFRPERLLAVAERYGLSGSDVLDNVAYARAFNTDHQTQLLYQASAMMVESRYALLIVDSATALYRTDYSGRGELSARQMHLARFLRMLLRLADEFGVAVVITNQVVAQVDGAAMFAADPKKPIGGNIIAHASTTRLYLRKGRGETRICKIYDSPCLPEAEAMFAINADGVGDAKD

> <PDB ID(s) of Target Chain>
1N0W,5JZC,5NP7,5NWL,8BQ2,8BR2,8BSC

> <UniProt (SwissProt) Recommended Name of Target Chain>
DNA repair protein RAD51 homolog 1

> <UniProt (SwissProt) Entry Name of Target Chain>
RAD51_HUMAN

> <UniProt (SwissProt) Primary ID of Target Chain>
Q06609

> <UniProt (SwissProt) Secondary ID(s) of Target Chain>
B0FXP0 B2R8T6 Q6FHX9 Q6ZNA8 Q9BV60

> <UniProt (SwissProt) Alternative ID(s) of Target Chain>


> <UniProt (TrEMBL) Submitted Name of Target Chain>


> <UniProt (TrEMBL) Entry Name of Target Chain>


> <UniProt (TrEMBL) Primary ID of Target Chain>


> <UniProt (TrEMBL) Secondary ID(s) of Target Chain>


> <UniProt (TrEMBL) Alternative ID(s) of Target Chain>


$$$$
2882343
  Mrv0541 11191410422D          

 24 26  0  0  0  0            999 V2000
    5.3581    0.1539    0.0000 S   0  0  0  0  0  0  0  0  0  0  0  0
    2.3983   -0.7005    0.0000 O   0  0  0  0  0  0  0  0  0  0  0  0
    3.8782   -0.7005    0.0000 N   0  0  0  0  0  0  0  0  0  0  0  0
    3.8782    0.1539    0.0000 N   0  0  0  0  0  0  0  0  0  0  0  0
    4.6181    1.4355    0.0000 N   0  0  0  0  0  0  0  0  0  0  0  0
    3.1383   -1.9822    0.0000 C   0  0  0  0  0  0  0  0  0  0  0  0
    2.5478   -3.5914    0.0000 C   0  0  0  0  0  0  0  0  0  0  0  0
    3.8527   -3.2196    0.0000 C   0  0  0  0  0  0  0  0  0  0  0  0
    2.4238   -3.2196    0.0000 C   0  0  0  0  0  0  0  0  0  0  0  0
    3.8527   -2.3947    0.0000 C   0  0  0  0  0  0  0  0  0  0  0  0
    2.4238   -2.3947    0.0000 C   0  0  0  0  0  0  0  0  0  0  0  0
    2.5478   -2.6982    0.0000 C   0  0  0  0  0  0  0  0  0  0  0  0
    3.1383   -3.4783    0.0000 C   0  0  0  0  0  0  0  0  0  0  0  0
    3.3216   -3.9988    0.0000 C   0  0  0  0  0  0  0  0  0  0  0  0
    1.7088   -3.6321    0.0000 C   0  0  0  0  0  0  0  0  0  0  0  0
    3.1383   -1.1277    0.0000 C   0  0  0  0  0  0  0  0  0  0  0  0
    4.6181    0.5811    0.0000 C   0  0  0  0  0  0  0  0  0  0  0  0
    5.3581    1.8627    0.0000 C   0  0  0  0  0  0  0  0  0  0  0  0
    5.3581    2.7171    0.0000 C   0  0  0  0  0  0  0  0  0  0  0  0
    6.0981    3.1443    0.0000 C   0  0  0  0  0  0  0  0  0  0  0  0
    6.0981    3.9988    0.0000 C   0  0  0  0  0  0  0  0  0  0  0  0
    2.3693   -4.3968    0.0000 H   0  0  0  0  0  0  0  0  0  0  0  0
    4.6411   -3.4628    0.0000 H   0  0  0  0  0  0  0  0  0  0  0  0
    2.9655   -3.8419    0.0000 H   0  0  0  0  0  0  0  0  0  0  0  0
  1 17  2  0  0  0  0
  2 16  2  0  0  0  0
  3  4  1  0  0  0  0
  3 16  1  0  0  0  0
  4 17  1  0  0  0  0
  5 17  1  0  0  0  0
  5 18  1  0  0  0  0
  6 10  1  0  0  0  0
  6 11  1  0  0  0  0
  6 12  1  0  0  0  0
  6 16  1  0  0  0  0
  7 12  1  0  0  0  0
  7 14  1  0  0  0  0
  7 15  1  0  0  0  0
  8 10  1  0  0  0  0
  8 13  1  0  0  0  0
  8 14  1  0  0  0  0
  9 11  1  0  0  0  0
  9 13  1  0  0  0  0
  9 15  1  0  0  0  0
 18 19  1  0  0  0  0
 19 20  1  0  0  0  0
 20 21  1  0  0  0  0
 22  7  1  0  0  0  0
 23  8  1  0  0  0  0
 24  9  1  0  0  0  0
M  END
> <From>
www.bindingDB.org

> <BindingDB Reactant_set_id>
108188

> <Ligand InChI>
InChI=1S/C16H27N3OS/c1-2-3-4-17-15(21)19-18-14(20)16-8-11-5-12(9-16)7-13(6-11)10-16/h11-13H,2-10H2,1H3,(H,18,20)(H2,17,19,21)

> <Ligand InChI Key>
ZDMNYPOYATVJFJ-UHFFFAOYSA-N

> <BindingDB MonomerID>
56867

> <BindingDB Ligand Name>
1-(1-adamantylcarbonylamino)-3-butyl-thiourea::1-(adamantane-1-carbonylamino)-3-butyl-thiourea::1-(adamantane-1-carbonylamino)-3-butylthiourea::1-[[1-adamantyl(oxo)methyl]amino]-3-butylthiourea::2-(1-adamantylcarbonyl)-N-butylhydrazinecarbothioamide::MLS000533729::SMR000141167::cid_2882343

> <Target Name>
DNA repair protein RAD51 homolog 1

> <Target Source Organism According to Curator or DataSource>
Homo sapiens

> <Ki (nM)>


> <IC50 (nM)>
 85000

> <Kd (nM)>


> <EC50 (nM)>


> <kon (M-1-s-1)>


> <koff (s-1)>


> <pH>


> <Temp C>


> <Curation/DataSource>
PubChem

> <Article DOI>


> <BindingDB Entry DOI>
10.7270/Q2BV7F1T

> <PMID>


> <PubChem AID>
aid1435

> <Patent Number>


> <Authors>
PubChem, PC

> <Date of publication>
11/21/2008

> <Date in BindingDB>
6/8/2011

> <Institution>
PCMD

> <Link to Ligand in BindingDB>
http://www.bindingdb.org/bind/chemsearch/marvin/MolStructure.jsp?monomerid=56867

> <Link to Ligand-Target Pair in BindingDB>
http://www.bindingdb.org/jsp/dbsearch/PrimarySearch_ki.jsp?energyterm=kJ/mole&tag=pol&polymerid=4676&target=DNA+repair+protein+RAD51+homolog+1&column=ki&startPg=0&Increment=50&submit=Search

> <Link to Ligand-Target Pair in BindingDB>
http://www.bindingdb.org/jsp/dbsearch/PrimarySearch_ki.jsp?energyterm=kJ/mole&tag=r21&monomerid=56867&enzyme=DNA+repair+protein+RAD51+homolog+1&column=ki&startPg=0&Increment=50&submit=Search

> <Ligand HET ID in PDB>


> <PDB ID(s) for Ligand-Target Complex>


> <PubChem CID of Ligand>
2882343

> <PubChem SID of Ligand>
252636822

> <ChEBI ID of Ligand>


> <ChEMBL ID of Ligand>


> <DrugBank ID of Ligand>


> <IUPHAR_GRAC ID of Ligand>


> <KEGG ID of Ligand>


> <ZINC ID of Ligand>
ZINC13468496

> <Number of Protein Chains in Target (bigger than 1 implies a multichain complex)>
1

> <BindingDB Target Chain Sequence>
MAMQMQLEANADTSVEEESFGPQPISRLEQCGINANDVKKLEEAGFHTVEAVAYAPKKELINIKGISEAKADKILAEAAKLVPMGFTTATEFHQRRSEIIQITTGSKELDKLLQGGIETGSITEMFGEFRTGKTQICHTLAVTCQLPIDRGGGEGKAMYIDTEGTFRPERLLAVAERYGLSGSDVLDNVAYARAFNTDHQTQLLYQASAMMVESRYALLIVDSATALYRTDYSGRGELSARQMHLARFLRMLLRLADEFGVAVVITNQVVAQVDGAAMFAADPKKPIGGNIIAHASTTRLYLRKGRGETRICKIYDSPCLPEAEAMFAINADGVGDAKD

> <PDB ID(s) of Target Chain>
1N0W,5JZC,5NP7,5NWL,8BQ2,8BR2,8BSC

> <UniProt (SwissProt) Recommended Name of Target Chain>
DNA repair protein RAD51 homolog 1

> <UniProt (SwissProt) Entry Name of Target Chain>
RAD51_HUMAN

> <UniProt (SwissProt) Primary ID of Target Chain>
Q06609

> <UniProt (SwissProt) Secondary ID(s) of Target Chain>
B0FXP0 B2R8T6 Q6FHX9 Q6ZNA8 Q9BV60

> <UniProt (SwissProt) Alternative ID(s) of Target Chain>


> <UniProt (TrEMBL) Submitted Name of Target Chain>


> <UniProt (TrEMBL) Entry Name of Target Chain>


> <UniProt (TrEMBL) Primary ID of Target Chain>


> <UniProt (TrEMBL) Secondary ID(s) of Target Chain>


> <UniProt (TrEMBL) Alternative ID(s) of Target Chain>


$$$$
1262699
  Mrv0541 11251415482D          

 28 31  0  0  0  0            999 V2000
    2.4751   -0.6330    0.0000 S   0  0  0  0  0  0  0  0  0  0  0  0
    1.6500   -0.6330    0.0000 O   0  0  0  0  0  0  0  0  0  0  0  0
    3.3001   -0.6330    0.0000 O   0  0  0  0  0  0  0  0  0  0  0  0
    7.4995    1.4009    0.0000 O   0  0  0  0  0  0  0  0  0  0  0  0
    7.4995    3.1081    0.0000 O   0  0  0  0  0  0  0  0  0  0  0  0
    3.9040    2.6670    0.0000 O   0  0  0  0  0  0  0  0  0  0  0  0
    2.4751   -1.4581    0.0000 N   0  0  0  0  0  0  0  0  0  0  0  0
    4.6185    1.4295    0.0000 N   0  0  0  0  0  0  0  0  0  0  0  0
    1.7606   -1.8706    0.0000 C   0  0  0  0  0  0  0  0  0  0  0  0
    3.1895   -1.8706    0.0000 C   0  0  0  0  0  0  0  0  0  0  0  0
    1.7606   -2.6956    0.0000 C   0  0  0  0  0  0  0  0  0  0  0  0
    3.1895   -2.6956    0.0000 C   0  0  0  0  0  0  0  0  0  0  0  0
    2.4751   -3.1081    0.0000 C   0  0  0  0  0  0  0  0  0  0  0  0
    2.4751    0.1920    0.0000 C   0  0  0  0  0  0  0  0  0  0  0  0
    3.1895    0.6045    0.0000 C   0  0  0  0  0  0  0  0  0  0  0  0
    1.7606    0.6045    0.0000 C   0  0  0  0  0  0  0  0  0  0  0  0
    3.1895    1.4295    0.0000 C   0  0  0  0  0  0  0  0  0  0  0  0
    1.7606    1.4295    0.0000 C   0  0  0  0  0  0  0  0  0  0  0  0
    2.4751    1.8420    0.0000 C   0  0  0  0  0  0  0  0  0  0  0  0
    3.9040    1.8420    0.0000 C   0  0  0  0  0  0  0  0  0  0  0  0
    5.3330    1.8420    0.0000 C   0  0  0  0  0  0  0  0  0  0  0  0
    6.7620    1.8420    0.0000 C   0  0  0  0  0  0  0  0  0  0  0  0
    6.7620    2.6670    0.0000 C   0  0  0  0  0  0  0  0  0  0  0  0
    6.0475    1.4295    0.0000 C   0  0  0  0  0  0  0  0  0  0  0  0
    8.2470    1.8248    0.0000 C   0  0  0  0  0  0  0  0  0  0  0  0
    8.2470    2.6842    0.0000 C   0  0  0  0  0  0  0  0  0  0  0  0
    5.3330    2.6670    0.0000 C   0  0  0  0  0  0  0  0  0  0  0  0
    6.0475    3.0795    0.0000 C   0  0  0  0  0  0  0  0  0  0  0  0
  1  2  2  0  0  0  0
  1  3  2  0  0  0  0
  1  7  1  0  0  0  0
  1 14  1  0  0  0  0
  4 22  1  0  0  0  0
  4 25  1  0  0  0  0
  5 23  1  0  0  0  0
  5 26  1  0  0  0  0
  6 20  2  0  0  0  0
  7  9  1  0  0  0  0
  7 10  1  0  0  0  0
  8 20  1  0  0  0  0
  8 21  1  0  0  0  0
  9 11  1  0  0  0  0
 10 12  1  0  0  0  0
 11 13  1  0  0  0  0
 12 13  1  0  0  0  0
 14 15  2  0  0  0  0
 14 16  1  0  0  0  0
 15 17  1  0  0  0  0
 16 18  2  0  0  0  0
 17 19  2  0  0  0  0
 17 20  1  0  0  0  0
 18 19  1  0  0  0  0
 21 24  2  0  0  0  0
 21 27  1  0  0  0  0
 22 23  2  0  0  0  0
 22 24  1  0  0  0  0
 23 28  1  0  0  0  0
 25 26  1  0  0  0  0
 27 28  2  0  0  0  0
M  END
> <From>
www.bindingDB.org

> <BindingDB Reactant_set_id>
108189

> <Ligand InChI>
InChI=1S/C20H22N2O5S/c23-20(21-16-7-8-18-19(14-16)27-12-11-26-18)15-5-4-6-17(13-15)28(24,25)22-9-2-1-3-10-22/h4-8,13-14H,1-3,9-12H2,(H,21,23)

> <Ligand InChI Key>
KQXIYYOJORBUBW-UHFFFAOYSA-N

> <BindingDB MonomerID>
43823

> <BindingDB Ligand Name>
Kanamycin A, 1::MLS000531200::N-(2,3-dihydro-1,4-benzodioxin-6-yl)-3-(1-piperidinylsulfonyl)benzamide::N-(2,3-dihydro-1,4-benzodioxin-6-yl)-3-piperidin-1-ylsulfonyl-benzamide::N-(2,3-dihydro-1,4-benzodioxin-6-yl)-3-piperidin-1-ylsulfonylbenzamide::N-(2,3-dihydro-1,4-benzodioxin-6-yl)-3-piperidinosulfonyl-benzamide::SMR000136178::cid_1262699

> <Target Name>
DNA repair protein RAD51 homolog 1

> <Target Source Organism According to Curator or DataSource>
Homo sapiens

> <Ki (nM)>


> <IC50 (nM)>
 85000

> <Kd (nM)>


> <EC50 (nM)>


> <kon (M-1-s-1)>


> <koff (s-1)>


> <pH>


> <Temp C>


> <Curation/DataSource>
PubChem

> <Article DOI>


> <BindingDB Entry DOI>
10.7270/Q2BV7F1T

> <PMID>


> <PubChem AID>
aid1435

> <Patent Number>


> <Authors>
PubChem, PC

> <Date of publication>
11/21/2008

> <Date in BindingDB>
6/8/2011

> <Institution>
PCMD

> <Link to Ligand in BindingDB>
http://www.bindingdb.org/bind/chemsearch/marvin/MolStructure.jsp?monomerid=43823

> <Link to Ligand-Target Pair in BindingDB>
http://www.bindingdb.org/jsp/dbsearch/PrimarySearch_ki.jsp?energyterm=kJ/mole&tag=pol&polymerid=4676&target=DNA+repair+protein+RAD51+homolog+1&column=ki&startPg=0&Increment=50&submit=Search

> <Link to Ligand-Target Pair in BindingDB>
http://www.bindingdb.org/jsp/dbsearch/PrimarySearch_ki.jsp?energyterm=kJ/mole&tag=r21&monomerid=43823&enzyme=DNA+repair+protein+RAD51+homolog+1&column=ki&startPg=0&Increment=50&submit=Search

> <Ligand HET ID in PDB>


> <PDB ID(s) for Ligand-Target Complex>


> <PubChem CID of Ligand>
1262699

> <PubChem SID of Ligand>
123080181

> <ChEBI ID of Ligand>


> <ChEMBL ID of Ligand>


> <DrugBank ID of Ligand>


> <IUPHAR_GRAC ID of Ligand>


> <KEGG ID of Ligand>


> <ZINC ID of Ligand>
ZINC01074957

> <Number of Protein Chains in Target (bigger than 1 implies a multichain complex)>
1

> <BindingDB Target Chain Sequence>
MAMQMQLEANADTSVEEESFGPQPISRLEQCGINANDVKKLEEAGFHTVEAVAYAPKKELINIKGISEAKADKILAEAAKLVPMGFTTATEFHQRRSEIIQITTGSKELDKLLQGGIETGSITEMFGEFRTGKTQICHTLAVTCQLPIDRGGGEGKAMYIDTEGTFRPERLLAVAERYGLSGSDVLDNVAYARAFNTDHQTQLLYQASAMMVESRYALLIVDSATALYRTDYSGRGELSARQMHLARFLRMLLRLADEFGVAVVITNQVVAQVDGAAMFAADPKKPIGGNIIAHASTTRLYLRKGRGETRICKIYDSPCLPEAEAMFAINADGVGDAKD

> <PDB ID(s) of Target Chain>
1N0W,5JZC,5NP7,5NWL,8BQ2,8BR2,8BSC

> <UniProt (SwissProt) Recommended Name of Target Chain>
DNA repair protein RAD51 homolog 1

> <UniProt (SwissProt) Entry Name of Target Chain>
RAD51_HUMAN

> <UniProt (SwissProt) Primary ID of Target Chain>
Q06609

> <UniProt (SwissProt) Secondary ID(s) of Target Chain>
B0FXP0 B2R8T6 Q6FHX9 Q6ZNA8 Q9BV60

> <UniProt (SwissProt) Alternative ID(s) of Target Chain>


> <UniProt (TrEMBL) Submitted Name of Target Chain>


> <UniProt (TrEMBL) Entry Name of Target Chain>


> <UniProt (TrEMBL) Primary ID of Target Chain>


> <UniProt (TrEMBL) Secondary ID(s) of Target Chain>


> <UniProt (TrEMBL) Alternative ID(s) of Target Chain>


$$$$
9551574
  Mrv0541 11251415482D          

 19 20  0  0  0  0            999 V2000
    3.8597    1.6804    0.0000 S   0  0  0  0  0  0  0  0  0  0  0  0
    6.4037   -1.1270    0.0000 O   0  0  0  0  0  0  0  0  0  0  0  0
    6.4037    0.3020    0.0000 N   0  0  0  0  0  0  0  0  0  0  0  0
    3.8597    0.3525    0.0000 N   0  0  0  0  0  0  0  0  0  0  0  0
    5.1662    1.0164    0.0000 N   0  0  0  0  0  0  0  0  0  0  0  0
    5.1662   -0.4125    0.0000 N   0  0  0  0  0  0  0  0  0  0  0  0
    8.0537   -1.1270    0.0000 C   0  0  0  0  0  0  0  0  0  0  0  0
    7.6412   -0.4125    0.0000 C   0  0  0  0  0  0  0  0  0  0  0  0
    8.8788   -1.1270    0.0000 C   0  0  0  0  0  0  0  0  0  0  0  0
    7.6412   -1.8414    0.0000 C   0  0  0  0  0  0  0  0  0  0  0  0
    6.8162   -0.4125    0.0000 C   0  0  0  0  0  0  0  0  0  0  0  0
    3.0790    1.4289    0.0000 C   0  0  0  0  0  0  0  0  0  0  0  0
    3.0790    0.6040    0.0000 C   0  0  0  0  0  0  0  0  0  0  0  0
    5.5787    0.3020    0.0000 C   0  0  0  0  0  0  0  0  0  0  0  0
    4.3412    1.0164    0.0000 C   0  0  0  0  0  0  0  0  0  0  0  0
    2.3645    1.8414    0.0000 C   0  0  0  0  0  0  0  0  0  0  0  0
    2.3645    0.1915    0.0000 C   0  0  0  0  0  0  0  0  0  0  0  0
    1.6500    1.4289    0.0000 C   0  0  0  0  0  0  0  0  0  0  0  0
    1.6500    0.6040    0.0000 C   0  0  0  0  0  0  0  0  0  0  0  0
  1 12  1  0  0  0  0
  1 15  1  0  0  0  0
  2 11  2  0  0  0  0
  3 11  1  0  0  0  0
  3 14  1  0  0  0  0
  4 13  1  0  0  0  0
  4 15  2  0  0  0  0
  5 14  2  0  0  0  0
  5 15  1  4  0  0  0
  6 14  1  0  0  0  0
  7  8  1  0  0  0  0
  7  9  1  0  0  0  0
  7 10  1  0  0  0  0
  8 11  1  0  0  0  0
 12 13  1  0  0  0  0
 12 16  2  0  0  0  0
 13 17  2  0  0  0  0
 16 18  1  0  0  0  0
 17 19  1  0  0  0  0
 18 19  2  0  0  0  0
M  END
> <From>
www.bindingDB.org

> <BindingDB Reactant_set_id>
108190

> <Ligand InChI>
InChI=1S/C13H16N4OS/c1-8(2)7-11(18)16-12(14)17-13-15-9-5-3-4-6-10(9)19-13/h3-6,8H,7H2,1-2H3,(H3,14,15,16,17,18)

> <Ligand InChI Key>
QEZKNEHWQLCNBC-UHFFFAOYSA-N

> <BindingDB MonomerID>
43824

> <BindingDB Ligand Name>
Aminoglycosides, 2::MLS000533892::N-[(E)-N''''-(1,3-benzothiazol-2-yl)amidino]-3-methyl-butyramide::N-[(E)-N''''-(1,3-benzothiazol-2-yl)carbamimidoyl]-3-methyl-butanamide::N-[(E)-N''''-(1,3-benzothiazol-2-yl)carbamimidoyl]-3-methylbutanamide::N-[(E)-N''-(1,3-benzothiazol-2-yl)amidino]-3-methyl-butyramide::N-[(E)-N'-(1,3-benzothiazol-2-yl)amidino]-3-methyl-butyramide::N-[(E)-amino(1,3-benzothiazol-2-ylimino)methyl]-3-methylbutanamide::N-[amino(1,3-benzothiazol-2-ylamino)methylene]-3-methylbutanamide::SMR000141329::cid_9551574

> <Target Name>
DNA repair protein RAD51 homolog 1

> <Target Source Organism According to Curator or DataSource>
Homo sapiens

> <Ki (nM)>


> <IC50 (nM)>
 85000

> <Kd (nM)>


> <EC50 (nM)>


> <kon (M-1-s-1)>


> <koff (s-1)>


> <pH>


> <Temp C>


> <Curation/DataSource>
PubChem

> <Article DOI>


> <BindingDB Entry DOI>
10.7270/Q2BV7F1T

> <PMID>


> <PubChem AID>
aid1435

> <Patent Number>


> <Authors>
PubChem, PC

> <Date of publication>
11/21/2008

> <Date in BindingDB>
6/8/2011

> <Institution>
PCMD

> <Link to Ligand in BindingDB>
http://www.bindingdb.org/bind/chemsearch/marvin/MolStructure.jsp?monomerid=43824

> <Link to Ligand-Target Pair in BindingDB>
http://www.bindingdb.org/jsp/dbsearch/PrimarySearch_ki.jsp?energyterm=kJ/mole&tag=pol&polymerid=4676&target=DNA+repair+protein+RAD51+homolog+1&column=ki&startPg=0&Increment=50&submit=Search

> <Link to Ligand-Target Pair in BindingDB>
http://www.bindingdb.org/jsp/dbsearch/PrimarySearch_ki.jsp?energyterm=kJ/mole&tag=r21&monomerid=43824&enzyme=DNA+repair+protein+RAD51+homolog+1&column=ki&startPg=0&Increment=50&submit=Search

> <Ligand HET ID in PDB>


> <PDB ID(s) for Ligand-Target Complex>


> <PubChem CID of Ligand>
9551574

> <PubChem SID of Ligand>
123080182

> <ChEBI ID of Ligand>


> <ChEMBL ID of Ligand>


> <DrugBank ID of Ligand>


> <IUPHAR_GRAC ID of Ligand>


> <KEGG ID of Ligand>


> <ZINC ID of Ligand>
ZINC13750758

> <Number of Protein Chains in Target (bigger than 1 implies a multichain complex)>
1

> <BindingDB Target Chain Sequence>
MAMQMQLEANADTSVEEESFGPQPISRLEQCGINANDVKKLEEAGFHTVEAVAYAPKKELINIKGISEAKADKILAEAAKLVPMGFTTATEFHQRRSEIIQITTGSKELDKLLQGGIETGSITEMFGEFRTGKTQICHTLAVTCQLPIDRGGGEGKAMYIDTEGTFRPERLLAVAERYGLSGSDVLDNVAYARAFNTDHQTQLLYQASAMMVESRYALLIVDSATALYRTDYSGRGELSARQMHLARFLRMLLRLADEFGVAVVITNQVVAQVDGAAMFAADPKKPIGGNIIAHASTTRLYLRKGRGETRICKIYDSPCLPEAEAMFAINADGVGDAKD

> <PDB ID(s) of Target Chain>
1N0W,5JZC,5NP7,5NWL,8BQ2,8BR2,8BSC

> <UniProt (SwissProt) Recommended Name of Target Chain>
DNA repair protein RAD51 homolog 1

> <UniProt (SwissProt) Entry Name of Target Chain>
RAD51_HUMAN

> <UniProt (SwissProt) Primary ID of Target Chain>
Q06609

> <UniProt (SwissProt) Secondary ID(s) of Target Chain>
B0FXP0 B2R8T6 Q6FHX9 Q6ZNA8 Q9BV60

> <UniProt (SwissProt) Alternative ID(s) of Target Chain>


> <UniProt (TrEMBL) Submitted Name of Target Chain>


> <UniProt (TrEMBL) Entry Name of Target Chain>


> <UniProt (TrEMBL) Primary ID of Target Chain>


> <UniProt (TrEMBL) Secondary ID(s) of Target Chain>


> <UniProt (TrEMBL) Alternative ID(s) of Target Chain>


$$$$
6511833
  Mrv0541 11251415482D          

 26 27  0  0  0  0            999 V2000
    6.6513    1.8563    0.0000 Cl  0  0  0  0  0  0  0  0  0  0  0  0
    1.6500   -0.2063    0.0000 Cl  0  0  0  0  0  0  0  0  0  0  0  0
    3.0789   -3.5062    0.0000 F   0  0  0  0  0  0  0  0  0  0  0  0
    3.9039   -2.6812    0.0000 F   0  0  0  0  0  0  0  0  0  0  0  0
    2.2539   -2.6812    0.0000 F   0  0  0  0  0  0  0  0  0  0  0  0
    2.3644    1.8563    0.0000 O   0  0  0  0  0  0  0  0  0  0  0  0
    1.6500    0.6188    0.0000 O   0  0  0  0  0  0  0  0  0  0  0  0
    3.7934    1.8563    0.0000 N   0  0  0  0  0  0  0  0  0  0  0  0
    3.7934   -0.6188    0.0000 N   0  0  0  0  0  0  0  0  0  0  0  0
    4.5079    2.2688    0.0000 C   0  0  0  0  0  0  0  0  0  0  0  0
    5.2223    1.8563    0.0000 C   0  0  0  0  0  0  0  0  0  0  0  0
    3.0789    0.6188    0.0000 C   0  0  0  0  0  0  0  0  0  0  0  0
    3.0789   -0.2063    0.0000 C   0  0  0  0  0  0  0  0  0  0  0  0
    3.7934    1.0313    0.0000 C   0  0  0  0  0  0  0  0  0  0  0  0
    4.5079    3.0938    0.0000 C   0  0  0  0  0  0  0  0  0  0  0  0
    5.9369    2.2688    0.0000 C   0  0  0  0  0  0  0  0  0  0  0  0
    3.0789   -1.8563    0.0000 C   0  0  0  0  0  0  0  0  0  0  0  0
    2.3644   -0.6188    0.0000 C   0  0  0  0  0  0  0  0  0  0  0  0
    5.2223    1.0313    0.0000 C   0  0  0  0  0  0  0  0  0  0  0  0
    2.3644   -1.4438    0.0000 C   0  0  0  0  0  0  0  0  0  0  0  0
    5.2223    3.5062    0.0000 C   0  0  0  0  0  0  0  0  0  0  0  0
    5.9369    3.0938    0.0000 C   0  0  0  0  0  0  0  0  0  0  0  0
    3.7934   -1.4438    0.0000 C   0  0  0  0  0  0  0  0  0  0  0  0
    2.3644    1.0313    0.0000 C   0  0  0  0  0  0  0  0  0  0  0  0
    3.0789   -2.6812    0.0000 C   0  0  0  0  0  0  0  0  0  0  0  0
    1.6500    2.2688    0.0000 C   0  0  0  0  0  0  0  0  0  0  0  0
  1 16  1  0  0  0  0
  2 18  1  0  0  0  0
  3 25  1  0  0  0  0
  4 25  1  0  0  0  0
  5 25  1  0  0  0  0
  6 24  1  0  0  0  0
  6 26  1  0  0  0  0
  7 24  2  0  0  0  0
  8 10  1  4  0  0  0
  8 14  2  0  0  0  0
  9 13  2  0  0  0  0
  9 23  1  0  0  0  0
 10 11  2  0  0  0  0
 10 15  1  0  0  0  0
 11 16  1  0  0  0  0
 11 19  1  0  0  0  0
 12 13  1  0  0  0  0
 12 14  1  0  0  0  0
 12 24  1  0  0  0  0
 13 18  1  0  0  0  0
 15 21  2  0  0  0  0
 16 22  2  0  0  0  0
 17 20  1  0  0  0  0
 17 23  2  0  0  0  0
 17 25  1  0  0  0  0
 18 20  2  0  0  0  0
 21 22  1  0  0  0  0
M  END
> <From>
www.bindingDB.org

> <BindingDB Reactant_set_id>
108191

> <Ligand InChI>
InChI=1S/C17H13Cl2F3N2O2/c1-9-12(18)4-3-5-14(9)23-8-11(16(25)26-2)15-13(19)6-10(7-24-15)17(20,21)22/h3-8,11H,1-2H3

> <Ligand InChI Key>
UMFOIUUTTZKMLD-UHFFFAOYSA-N

> <BindingDB MonomerID>
43825

> <BindingDB Ligand Name>
(Z)-3-(3-chloro-2-methyl-anilino)-2-[3-chloro-5-(trifluoromethyl)-2-pyridyl]acrylic acid methyl ester::(Z)-3-(3-chloro-2-methylanilino)-2-[3-chloro-5-(trifluoromethyl)-2-pyridinyl]-2-propenoic acid methyl ester::Aminoglycosides, 3::MLS000540882::SMR000125940::cid_6511833::methyl (Z)-3-(3-chloro-2-methylanilino)-2-[3-chloro-5-(trifluoromethyl)-2-pyridinyl]-2-propenoate::methyl (Z)-3-(3-chloro-2-methylanilino)-2-[3-chloro-5-(trifluoromethyl)pyridin-2-yl]prop-2-enoate::methyl (Z)-3-[(3-chloranyl-2-methyl-phenyl)amino]-2-[3-chloranyl-5-(trifluoromethyl)pyridin-2-yl]prop-2-enoate

> <Target Name>
DNA repair protein RAD51 homolog 1

> <Target Source Organism According to Curator or DataSource>
Homo sapiens

> <Ki (nM)>


> <IC50 (nM)>
 85000

> <Kd (nM)>


> <EC50 (nM)>


> <kon (M-1-s-1)>


> <koff (s-1)>


> <pH>


> <Temp C>


> <Curation/DataSource>
PubChem

> <Article DOI>


> <BindingDB Entry DOI>
10.7270/Q2BV7F1T

> <PMID>


> <PubChem AID>
aid1435

> <Patent Number>


> <Authors>
PubChem, PC

> <Date of publication>
11/21/2008

> <Date in BindingDB>
6/8/2011

> <Institution>
PCMD

> <Link to Ligand in BindingDB>
http://www.bindingdb.org/bind/chemsearch/marvin/MolStructure.jsp?monomerid=43825

> <Link to Ligand-Target Pair in BindingDB>
http://www.bindingdb.org/jsp/dbsearch/PrimarySearch_ki.jsp?energyterm=kJ/mole&tag=pol&polymerid=4676&target=DNA+repair+protein+RAD51+homolog+1&column=ki&startPg=0&Increment=50&submit=Search

> <Link to Ligand-Target Pair in BindingDB>
http://www.bindingdb.org/jsp/dbsearch/PrimarySearch_ki.jsp?energyterm=kJ/mole&tag=r21&monomerid=43825&enzyme=DNA+repair+protein+RAD51+homolog+1&column=ki&startPg=0&Increment=50&submit=Search

> <Ligand HET ID in PDB>


> <PDB ID(s) for Ligand-Target Complex>


> <PubChem CID of Ligand>
91896577

> <PubChem SID of Ligand>
123080183

> <ChEBI ID of Ligand>


> <ChEMBL ID of Ligand>


> <DrugBank ID of Ligand>


> <IUPHAR_GRAC ID of Ligand>


> <KEGG ID of Ligand>


> <ZINC ID of Ligand>
ZINC13470756

> <Number of Protein Chains in Target (bigger than 1 implies a multichain complex)>
1

> <BindingDB Target Chain Sequence>
MAMQMQLEANADTSVEEESFGPQPISRLEQCGINANDVKKLEEAGFHTVEAVAYAPKKELINIKGISEAKADKILAEAAKLVPMGFTTATEFHQRRSEIIQITTGSKELDKLLQGGIETGSITEMFGEFRTGKTQICHTLAVTCQLPIDRGGGEGKAMYIDTEGTFRPERLLAVAERYGLSGSDVLDNVAYARAFNTDHQTQLLYQASAMMVESRYALLIVDSATALYRTDYSGRGELSARQMHLARFLRMLLRLADEFGVAVVITNQVVAQVDGAAMFAADPKKPIGGNIIAHASTTRLYLRKGRGETRICKIYDSPCLPEAEAMFAINADGVGDAKD

> <PDB ID(s) of Target Chain>
1N0W,5JZC,5NP7,5NWL,8BQ2,8BR2,8BSC

> <UniProt (SwissProt) Recommended Name of Target Chain>
DNA repair protein RAD51 homolog 1

> <UniProt (SwissProt) Entry Name of Target Chain>
RAD51_HUMAN

> <UniProt (SwissProt) Primary ID of Target Chain>
Q06609

> <UniProt (SwissProt) Secondary ID(s) of Target Chain>
B0FXP0 B2R8T6 Q6FHX9 Q6ZNA8 Q9BV60

> <UniProt (SwissProt) Alternative ID(s) of Target Chain>


> <UniProt (TrEMBL) Submitted Name of Target Chain>


> <UniProt (TrEMBL) Entry Name of Target Chain>


> <UniProt (TrEMBL) Primary ID of Target Chain>


> <UniProt (TrEMBL) Secondary ID(s) of Target Chain>


> <UniProt (TrEMBL) Alternative ID(s) of Target Chain>


$$$$
4884909
  Mrv0541 11251415482D          

 31 33  0  0  1  0            999 V2000
    3.7935   -1.5729    0.0000 S   0  0  0  0  0  0  0  0  0  0  0  0
    8.0241   -0.7479    0.0000 S   0  0  0  0  0  0  0  0  0  0  0  0
    3.3810   -0.8584    0.0000 O   0  0  0  0  0  0  0  0  0  0  0  0
    4.2060   -2.2874    0.0000 O   0  0  0  0  0  0  0  0  0  0  0  0
    7.7428    3.0528    0.0000 O   0  0  0  0  0  0  0  0  0  0  0  0
    9.6742   -0.7479    0.0000 O   0  0  0  0  0  0  0  0  0  0  0  0
    3.0790   -1.9854    0.0000 N   0  0  0  0  0  0  0  0  0  0  0  0
    6.7176   -0.0840    0.0000 N   0  0  0  0  0  0  0  0  0  0  0  0
    6.7176   -1.4118    0.0000 N   0  0  0  0  0  0  0  0  0  0  0  0
    9.6742   -2.1769    0.0000 N   0  0  0  0  0  0  0  0  0  0  0  0
    4.5080   -1.1604    0.0000 C   0  0  0  0  0  0  0  0  0  0  0  0
    5.9370   -0.3354    0.0000 C   0  0  0  0  0  0  0  0  0  0  0  0
    5.9370   -1.1604    0.0000 C   0  0  0  0  0  0  0  0  0  0  0  0
    5.2224   -1.5729    0.0000 C   0  0  0  0  0  0  0  0  0  0  0  0
    2.3645   -1.5729    0.0000 C   0  0  0  0  0  0  0  0  0  0  0  0
    3.0790   -2.8104    0.0000 C   0  0  0  0  0  0  0  0  0  0  0  0
    4.5080   -0.3354    0.0000 C   0  0  0  0  0  0  0  0  0  0  0  0
    5.2224    0.0771    0.0000 C   0  0  0  0  0  0  0  0  0  0  0  0
    7.1991   -0.7479    0.0000 C   0  0  0  0  0  0  0  0  0  0  0  0
    6.9739    0.7002    0.0000 C   0  0  0  0  0  0  0  0  0  0  0  0
    1.6500   -1.9854    0.0000 C   0  0  0  0  0  0  0  0  0  0  0  0
    2.3645   -3.2229    0.0000 C   0  0  0  0  0  0  0  0  0  0  0  0
    6.4229    1.3143    0.0000 C   0  0  0  0  0  0  0  0  0  0  0  0
    7.7812    0.8704    0.0000 C   0  0  0  0  0  0  0  0  0  0  0  0
    8.4366   -1.4623    0.0000 C   0  0  0  0  0  0  0  0  0  0  0  0
    6.6792    2.0985    0.0000 C   0  0  0  0  0  0  0  0  0  0  0  0
    8.0375    1.6546    0.0000 C   0  0  0  0  0  0  0  0  0  0  0  0
    7.4865    2.2686    0.0000 C   0  0  0  0  0  0  0  0  0  0  0  0
    8.0241   -2.1769    0.0000 C   0  0  0  0  0  0  0  0  0  0  0  0
    9.2617   -1.4623    0.0000 C   0  0  0  0  0  0  0  0  0  0  0  0
    8.5501    3.2229    0.0000 C   0  0  0  0  0  0  0  0  0  0  0  0
  1  3  2  0  0  0  0
  1  4  2  0  0  0  0
  1  7  1  0  0  0  0
  1 11  1  0  0  0  0
  2 19  1  0  0  0  0
  2 25  1  0  0  0  0
  5 28  1  0  0  0  0
  5 31  1  0  0  0  0
  6 30  2  0  0  0  0
  7 15  1  0  0  0  0
  7 16  1  0  0  0  0
  8 12  1  0  0  0  0
  8 19  1  0  0  0  0
  8 20  1  0  0  0  0
  9 13  1  0  0  0  0
  9 19  2  0  0  0  0
 10 30  1  0  0  0  0
 11 14  1  0  0  0  0
 11 17  2  0  0  0  0
 12 13  1  0  0  0  0
 12 18  2  0  0  0  0
 13 14  2  0  0  0  0
 15 21  1  0  0  0  0
 16 22  1  0  0  0  0
 17 18  1  0  0  0  0
 20 23  2  0  0  0  0
 20 24  1  0  0  0  0
 23 26  1  0  0  0  0
 24 27  2  0  0  0  0
 25 29  1  0  0  0  0
 25 30  1  0  0  0  0
 26 28  2  0  0  0  0
 27 28  1  0  0  0  0
M  END
> <From>
www.bindingDB.org

> <BindingDB Reactant_set_id>
108192

> <Ligand InChI>
InChI=1S/C21H26N4O4S2/c1-5-24(6-2)31(27,28)17-11-12-19-18(13-17)23-21(30-14(3)20(22)26)25(19)15-7-9-16(29-4)10-8-15/h7-14H,5-6H2,1-4H3,(H2,22,26)

> <Ligand InChI Key>
UXBCXLRSWXQDTE-UHFFFAOYSA-N

> <BindingDB MonomerID>
43826

> <BindingDB Ligand Name>
2-[5-(diethylsulfamoyl)-1-(4-methoxyphenyl)benzimidazol-2-yl]sulfanylpropanamide::2-[[5-(diethylsulfamoyl)-1-(4-methoxyphenyl)-2-benzimidazolyl]thio]propanamide::2-[[5-(diethylsulfamoyl)-1-(4-methoxyphenyl)benzimidazol-2-yl]thio]propionamide::Aminoglycosides, 5::MLS000568202::SMR000154533::cid_4884909

> <Target Name>
DNA repair protein RAD51 homolog 1

> <Target Source Organism According to Curator or DataSource>
Homo sapiens

> <Ki (nM)>


> <IC50 (nM)>
 34771

> <Kd (nM)>


> <EC50 (nM)>


> <kon (M-1-s-1)>


> <koff (s-1)>


> <pH>


> <Temp C>


> <Curation/DataSource>
PubChem

> <Article DOI>


> <BindingDB Entry DOI>
10.7270/Q2BV7F1T

> <PMID>


> <PubChem AID>
aid1435

> <Patent Number>


> <Authors>
PubChem, PC

> <Date of publication>
11/21/2008

> <Date in BindingDB>
6/8/2011

> <Institution>
PCMD

> <Link to Ligand in BindingDB>
http://www.bindingdb.org/bind/chemsearch/marvin/MolStructure.jsp?monomerid=43826

> <Link to Ligand-Target Pair in BindingDB>
http://www.bindingdb.org/jsp/dbsearch/PrimarySearch_ki.jsp?energyterm=kJ/mole&tag=pol&polymerid=4676&target=DNA+repair+protein+RAD51+homolog+1&column=ki&startPg=0&Increment=50&submit=Search

> <Link to Ligand-Target Pair in BindingDB>
http://www.bindingdb.org/jsp/dbsearch/PrimarySearch_ki.jsp?energyterm=kJ/mole&tag=r21&monomerid=43826&enzyme=DNA+repair+protein+RAD51+homolog+1&column=ki&startPg=0&Increment=50&submit=Search

> <Ligand HET ID in PDB>


> <PDB ID(s) for Ligand-Target Complex>


> <PubChem CID of Ligand>
4884909

> <PubChem SID of Ligand>
123080184

> <ChEBI ID of Ligand>


> <ChEMBL ID of Ligand>


> <DrugBank ID of Ligand>


> <IUPHAR_GRAC ID of Ligand>


> <KEGG ID of Ligand>


> <ZINC ID of Ligand>
ZINC06153489

> <Number of Protein Chains in Target (bigger than 1 implies a multichain complex)>
1

> <BindingDB Target Chain Sequence>
MAMQMQLEANADTSVEEESFGPQPISRLEQCGINANDVKKLEEAGFHTVEAVAYAPKKELINIKGISEAKADKILAEAAKLVPMGFTTATEFHQRRSEIIQITTGSKELDKLLQGGIETGSITEMFGEFRTGKTQICHTLAVTCQLPIDRGGGEGKAMYIDTEGTFRPERLLAVAERYGLSGSDVLDNVAYARAFNTDHQTQLLYQASAMMVESRYALLIVDSATALYRTDYSGRGELSARQMHLARFLRMLLRLADEFGVAVVITNQVVAQVDGAAMFAADPKKPIGGNIIAHASTTRLYLRKGRGETRICKIYDSPCLPEAEAMFAINADGVGDAKD

> <PDB ID(s) of Target Chain>
1N0W,5JZC,5NP7,5NWL,8BQ2,8BR2,8BSC

> <UniProt (SwissProt) Recommended Name of Target Chain>
DNA repair protein RAD51 homolog 1

> <UniProt (SwissProt) Entry Name of Target Chain>
RAD51_HUMAN

> <UniProt (SwissProt) Primary ID of Target Chain>
Q06609

> <UniProt (SwissProt) Secondary ID(s) of Target Chain>
B0FXP0 B2R8T6 Q6FHX9 Q6ZNA8 Q9BV60

> <UniProt (SwissProt) Alternative ID(s) of Target Chain>


> <UniProt (TrEMBL) Submitted Name of Target Chain>


> <UniProt (TrEMBL) Entry Name of Target Chain>


> <UniProt (TrEMBL) Primary ID of Target Chain>


> <UniProt (TrEMBL) Secondary ID(s) of Target Chain>


> <UniProt (TrEMBL) Alternative ID(s) of Target Chain>


$$$$
2565969
  Mrv0541 11251415482D          

 23 25  0  0  0  0            999 V2000
    6.1596    0.2176    0.0000 O   0  0  0  0  0  0  0  0  0  0  0  0
    5.7181   -1.1414    0.0000 O   0  0  0  0  0  0  0  0  0  0  0  0
    2.2843    0.4080    0.0000 N   0  0  0  0  0  0  0  0  0  0  0  0
    2.0293   -0.3766    0.0000 N   0  0  0  0  0  0  0  0  0  0  0  0
    1.7993    1.0755    0.0000 C   0  0  0  0  0  0  0  0  0  0  0  0
    2.6968   -0.8615    0.0000 C   0  0  0  0  0  0  0  0  0  0  0  0
    3.3642   -0.3766    0.0000 C   0  0  0  0  0  0  0  0  0  0  0  0
    3.1093    0.4080    0.0000 C   0  0  0  0  0  0  0  0  0  0  0  0
    2.1349    1.8292    0.0000 C   0  0  0  0  0  0  0  0  0  0  0  0
    2.6968   -1.6865    0.0000 C   0  0  0  0  0  0  0  0  0  0  0  0
    4.1489   -0.6315    0.0000 C   0  0  0  0  0  0  0  0  0  0  0  0
    2.9554    1.9154    0.0000 C   0  0  0  0  0  0  0  0  0  0  0  0
    1.6500    2.4966    0.0000 C   0  0  0  0  0  0  0  0  0  0  0  0
    1.9823   -2.0990    0.0000 C   0  0  0  0  0  0  0  0  0  0  0  0
    3.4113   -2.0990    0.0000 C   0  0  0  0  0  0  0  0  0  0  0  0
    3.2909    2.6691    0.0000 C   0  0  0  0  0  0  0  0  0  0  0  0
    1.9855    3.2503    0.0000 C   0  0  0  0  0  0  0  0  0  0  0  0
    1.9823   -2.9240    0.0000 C   0  0  0  0  0  0  0  0  0  0  0  0
    3.4113   -2.9240    0.0000 C   0  0  0  0  0  0  0  0  0  0  0  0
    2.8061    3.3365    0.0000 C   0  0  0  0  0  0  0  0  0  0  0  0
    2.6968   -3.3365    0.0000 C   0  0  0  0  0  0  0  0  0  0  0  0
    4.7619   -0.0794    0.0000 C   0  0  0  0  0  0  0  0  0  0  0  0
    5.5466   -0.3345    0.0000 C   0  0  0  0  0  0  0  0  0  0  0  0
  1 23  1  0  0  0  0
  2 23  2  0  0  0  0
  3  4  1  0  0  0  0
  3  5  1  0  0  0  0
  3  8  1  0  0  0  0
  4  6  2  0  0  0  0
  5  9  1  0  0  0  0
  6  7  1  0  0  0  0
  6 10  1  0  0  0  0
  7  8  2  0  0  0  0
  7 11  1  0  0  0  0
  9 12  2  0  0  0  0
  9 13  1  0  0  0  0
 10 14  2  0  0  0  0
 10 15  1  0  0  0  0
 11 22  2  0  0  0  0
 12 16  1  0  0  0  0
 13 17  2  0  0  0  0
 14 18  1  0  0  0  0
 15 19  2  0  0  0  0
 16 20  2  0  0  0  0
 17 20  1  0  0  0  0
 18 21  2  0  0  0  0
 19 21  1  0  0  0  0
 22 23  1  0  0  0  0
M  END
> <From>
www.bindingDB.org

> <BindingDB Reactant_set_id>
108193

> <Ligand InChI>
InChI=1S/C19H16N2O2/c22-18(23)12-11-17-14-21(13-15-7-3-1-4-8-15)20-19(17)16-9-5-2-6-10-16/h1-12,14H,13H2,(H,22,23)/b12-11+

> <Ligand InChI Key>
LTHZEHAKKYOLNA-VAWYXSNFSA-N

> <BindingDB MonomerID>
43827

> <BindingDB Ligand Name>
(E)-3-(1-benzyl-3-phenyl-pyrazol-4-yl)acrylic acid::(E)-3-(1-benzyl-3-phenylpyrazol-4-yl)prop-2-enoic acid::(E)-3-[3-phenyl-1-(phenylmethyl)-4-pyrazolyl]-2-propenoic acid::(E)-3-[3-phenyl-1-(phenylmethyl)pyrazol-4-yl]prop-2-enoic acid::Aminoglycosides, 4::MLS000567315::SMR000154054::cid_2565969

> <Target Name>
DNA repair protein RAD51 homolog 1

> <Target Source Organism According to Curator or DataSource>
Homo sapiens

> <Ki (nM)>


> <IC50 (nM)>
 85000

> <Kd (nM)>


> <EC50 (nM)>


> <kon (M-1-s-1)>


> <koff (s-1)>


> <pH>


> <Temp C>


> <Curation/DataSource>
PubChem

> <Article DOI>


> <BindingDB Entry DOI>
10.7270/Q2BV7F1T

> <PMID>


> <PubChem AID>
aid1435

> <Patent Number>


> <Authors>
PubChem, PC

> <Date of publication>
11/21/2008

> <Date in BindingDB>
6/8/2011

> <Institution>
PCMD

> <Link to Ligand in BindingDB>
http://www.bindingdb.org/bind/chemsearch/marvin/MolStructure.jsp?monomerid=43827

> <Link to Ligand-Target Pair in BindingDB>
http://www.bindingdb.org/jsp/dbsearch/PrimarySearch_ki.jsp?energyterm=kJ/mole&tag=pol&polymerid=4676&target=DNA+repair+protein+RAD51+homolog+1&column=ki&startPg=0&Increment=50&submit=Search

> <Link to Ligand-Target Pair in BindingDB>
http://www.bindingdb.org/jsp/dbsearch/PrimarySearch_ki.jsp?energyterm=kJ/mole&tag=r21&monomerid=43827&enzyme=DNA+repair+protein+RAD51+homolog+1&column=ki&startPg=0&Increment=50&submit=Search

> <Ligand HET ID in PDB>


> <PDB ID(s) for Ligand-Target Complex>


> <PubChem CID of Ligand>
2565969

> <PubChem SID of Ligand>
123080185

> <ChEBI ID of Ligand>


> <ChEMBL ID of Ligand>


> <DrugBank ID of Ligand>


> <IUPHAR_GRAC ID of Ligand>


> <KEGG ID of Ligand>


> <ZINC ID of Ligand>
ZINC03445819

> <Number of Protein Chains in Target (bigger than 1 implies a multichain complex)>
1

> <BindingDB Target Chain Sequence>
MAMQMQLEANADTSVEEESFGPQPISRLEQCGINANDVKKLEEAGFHTVEAVAYAPKKELINIKGISEAKADKILAEAAKLVPMGFTTATEFHQRRSEIIQITTGSKELDKLLQGGIETGSITEMFGEFRTGKTQICHTLAVTCQLPIDRGGGEGKAMYIDTEGTFRPERLLAVAERYGLSGSDVLDNVAYARAFNTDHQTQLLYQASAMMVESRYALLIVDSATALYRTDYSGRGELSARQMHLARFLRMLLRLADEFGVAVVITNQVVAQVDGAAMFAADPKKPIGGNIIAHASTTRLYLRKGRGETRICKIYDSPCLPEAEAMFAINADGVGDAKD

> <PDB ID(s) of Target Chain>
1N0W,5JZC,5NP7,5NWL,8BQ2,8BR2,8BSC

> <UniProt (SwissProt) Recommended Name of Target Chain>
DNA repair protein RAD51 homolog 1

> <UniProt (SwissProt) Entry Name of Target Chain>
RAD51_HUMAN

> <UniProt (SwissProt) Primary ID of Target Chain>
Q06609

> <UniProt (SwissProt) Secondary ID(s) of Target Chain>
B0FXP0 B2R8T6 Q6FHX9 Q6ZNA8 Q9BV60

> <UniProt (SwissProt) Alternative ID(s) of Target Chain>


> <UniProt (TrEMBL) Submitted Name of Target Chain>


> <UniProt (TrEMBL) Entry Name of Target Chain>


> <UniProt (TrEMBL) Primary ID of Target Chain>


> <UniProt (TrEMBL) Secondary ID(s) of Target Chain>


> <UniProt (TrEMBL) Alternative ID(s) of Target Chain>


$$$$
2449899
  Mrv0541 11251415482D          

 22 24  0  0  0  0            999 V2000
    3.8597    1.0670    0.0000 S   0  0  0  0  0  0  0  0  0  0  0  0
    6.8162    0.3020    0.0000 S   0  0  0  0  0  0  0  0  0  0  0  0
    9.2913   -2.5560    0.0000 F   0  0  0  0  0  0  0  0  0  0  0  0
    5.1662    0.3020    0.0000 O   0  0  0  0  0  0  0  0  0  0  0  0
    3.8597    2.3949    0.0000 N   0  0  0  0  0  0  0  0  0  0  0  0
    5.1662    1.7310    0.0000 N   0  0  0  0  0  0  0  0  0  0  0  0
    1.6500    1.3185    0.0000 C   0  0  0  0  0  0  0  0  0  0  0  0
    1.6500    2.1435    0.0000 C   0  0  0  0  0  0  0  0  0  0  0  0
    2.3645    0.9060    0.0000 C   0  0  0  0  0  0  0  0  0  0  0  0
    2.3645    2.5560    0.0000 C   0  0  0  0  0  0  0  0  0  0  0  0
    3.0790    1.3185    0.0000 C   0  0  0  0  0  0  0  0  0  0  0  0
    3.0790    2.1435    0.0000 C   0  0  0  0  0  0  0  0  0  0  0  0
    4.3412    1.7310    0.0000 C   0  0  0  0  0  0  0  0  0  0  0  0
    5.5787    1.0164    0.0000 C   0  0  0  0  0  0  0  0  0  0  0  0
    6.4037    1.0164    0.0000 C   0  0  0  0  0  0  0  0  0  0  0  0
    7.6412    0.3020    0.0000 C   0  0  0  0  0  0  0  0  0  0  0  0
    8.0537   -0.4125    0.0000 C   0  0  0  0  0  0  0  0  0  0  0  0
    7.6412   -1.1270    0.0000 C   0  0  0  0  0  0  0  0  0  0  0  0
    8.8788   -0.4125    0.0000 C   0  0  0  0  0  0  0  0  0  0  0  0
    8.0537   -1.8414    0.0000 C   0  0  0  0  0  0  0  0  0  0  0  0
    9.2913   -1.1270    0.0000 C   0  0  0  0  0  0  0  0  0  0  0  0
    8.8788   -1.8414    0.0000 C   0  0  0  0  0  0  0  0  0  0  0  0
  1 11  1  0  0  0  0
  1 13  1  0  0  0  0
  2 15  1  0  0  0  0
  2 16  1  0  0  0  0
  3 22  1  0  0  0  0
  4 14  2  0  0  0  0
  5 12  1  0  0  0  0
  5 13  2  0  0  0  0
  6 13  1  0  0  0  0
  6 14  1  0  0  0  0
  7  8  1  0  0  0  0
  7  9  1  0  0  0  0
  8 10  1  0  0  0  0
  9 11  1  0  0  0  0
 10 12  1  0  0  0  0
 11 12  2  0  0  0  0
 14 15  1  0  0  0  0
 16 17  1  0  0  0  0
 17 18  2  0  0  0  0
 17 19  1  0  0  0  0
 18 20  1  0  0  0  0
 19 21  2  0  0  0  0
 20 22  2  0  0  0  0
 21 22  1  0  0  0  0
M  END
> <From>
www.bindingDB.org

> <BindingDB Reactant_set_id>
108194

> <Ligand InChI>
InChI=1S/C16H17FN2OS2/c17-12-7-5-11(6-8-12)9-21-10-15(20)19-16-18-13-3-1-2-4-14(13)22-16/h5-8H,1-4,9-10H2,(H,18,19,20)

> <Ligand InChI Key>
BOEATSOZMRMDAA-UHFFFAOYSA-N

> <BindingDB MonomerID>
43828

> <BindingDB Ligand Name>
2-[(4-fluorobenzyl)thio]-N-(4,5,6,7-tetrahydro-1,3-benzothiazol-2-yl)acetamide::2-[(4-fluorophenyl)methylsulfanyl]-N-(4,5,6,7-tetrahydro-1,3-benzothiazol-2-yl)acetamide::2-[(4-fluorophenyl)methylsulfanyl]-N-(4,5,6,7-tetrahydro-1,3-benzothiazol-2-yl)ethanamide::2-[(4-fluorophenyl)methylthio]-N-(4,5,6,7-tetrahydro-1,3-benzothiazol-2-yl)acetamide::Glucosamine derivative, 1::MLS000567686::SMR000154162::cid_2449899

> <Target Name>
DNA repair protein RAD51 homolog 1

> <Target Source Organism According to Curator or DataSource>
Homo sapiens

> <Ki (nM)>


> <IC50 (nM)>
 85000

> <Kd (nM)>


> <EC50 (nM)>


> <kon (M-1-s-1)>


> <koff (s-1)>


> <pH>


> <Temp C>


> <Curation/DataSource>
PubChem

> <Article DOI>


> <BindingDB Entry DOI>
10.7270/Q2BV7F1T

> <PMID>


> <PubChem AID>
aid1435

> <Patent Number>


> <Authors>
PubChem, PC

> <Date of publication>
11/21/2008

> <Date in BindingDB>
6/8/2011

> <Institution>
PCMD

> <Link to Ligand in BindingDB>
http://www.bindingdb.org/bind/chemsearch/marvin/MolStructure.jsp?monomerid=43828

> <Link to Ligand-Target Pair in BindingDB>
http://www.bindingdb.org/jsp/dbsearch/PrimarySearch_ki.jsp?energyterm=kJ/mole&tag=pol&polymerid=4676&target=DNA+repair+protein+RAD51+homolog+1&column=ki&startPg=0&Increment=50&submit=Search

> <Link to Ligand-Target Pair in BindingDB>
http://www.bindingdb.org/jsp/dbsearch/PrimarySearch_ki.jsp?energyterm=kJ/mole&tag=r21&monomerid=43828&enzyme=DNA+repair+protein+RAD51+homolog+1&column=ki&startPg=0&Increment=50&submit=Search

> <Ligand HET ID in PDB>


> <PDB ID(s) for Ligand-Target Complex>


> <PubChem CID of Ligand>
2449899

> <PubChem SID of Ligand>
123080186

> <ChEBI ID of Ligand>


> <ChEMBL ID of Ligand>


> <DrugBank ID of Ligand>


> <IUPHAR_GRAC ID of Ligand>


> <KEGG ID of Ligand>


> <ZINC ID of Ligand>
ZINC03333711

> <Number of Protein Chains in Target (bigger than 1 implies a multichain complex)>
1

> <BindingDB Target Chain Sequence>
MAMQMQLEANADTSVEEESFGPQPISRLEQCGINANDVKKLEEAGFHTVEAVAYAPKKELINIKGISEAKADKILAEAAKLVPMGFTTATEFHQRRSEIIQITTGSKELDKLLQGGIETGSITEMFGEFRTGKTQICHTLAVTCQLPIDRGGGEGKAMYIDTEGTFRPERLLAVAERYGLSGSDVLDNVAYARAFNTDHQTQLLYQASAMMVESRYALLIVDSATALYRTDYSGRGELSARQMHLARFLRMLLRLADEFGVAVVITNQVVAQVDGAAMFAADPKKPIGGNIIAHASTTRLYLRKGRGETRICKIYDSPCLPEAEAMFAINADGVGDAKD

> <PDB ID(s) of Target Chain>
1N0W,5JZC,5NP7,5NWL,8BQ2,8BR2,8BSC

> <UniProt (SwissProt) Recommended Name of Target Chain>
DNA repair protein RAD51 homolog 1

> <UniProt (SwissProt) Entry Name of Target Chain>
RAD51_HUMAN

> <UniProt (SwissProt) Primary ID of Target Chain>
Q06609

> <UniProt (SwissProt) Secondary ID(s) of Target Chain>
B0FXP0 B2R8T6 Q6FHX9 Q6ZNA8 Q9BV60

> <UniProt (SwissProt) Alternative ID(s) of Target Chain>


> <UniProt (TrEMBL) Submitted Name of Target Chain>


> <UniProt (TrEMBL) Entry Name of Target Chain>


> <UniProt (TrEMBL) Primary ID of Target Chain>


> <UniProt (TrEMBL) Secondary ID(s) of Target Chain>


> <UniProt (TrEMBL) Alternative ID(s) of Target Chain>


$$$$
2454966
  Mrv0541 11251415482D          

 25 28  0  0  0  0            999 V2000
    5.9370   -1.8563    0.0000 O   0  0  0  0  0  0  0  0  0  0  0  0
    2.3645   -0.6188    0.0000 O   0  0  0  0  0  0  0  0  0  0  0  0
    3.7935    0.2063    0.0000 N   0  0  0  0  0  0  0  0  0  0  0  0
    5.2224   -0.6188    0.0000 N   0  0  0  0  0  0  0  0  0  0  0  0
    7.3659   -1.0313    0.0000 N   0  0  0  0  0  0  0  0  0  0  0  0
    3.7935   -0.6188    0.0000 C   0  0  0  0  0  0  0  0  0  0  0  0
    4.5080    0.6188    0.0000 C   0  0  0  0  0  0  0  0  0  0  0  0
    5.2224    0.2063    0.0000 C   0  0  0  0  0  0  0  0  0  0  0  0
    4.5080   -1.0313    0.0000 C   0  0  0  0  0  0  0  0  0  0  0  0
    3.0790    0.6188    0.0000 C   0  0  0  0  0  0  0  0  0  0  0  0
    5.9370   -1.0313    0.0000 C   0  0  0  0  0  0  0  0  0  0  0  0
    2.3645    0.2063    0.0000 C   0  0  0  0  0  0  0  0  0  0  0  0
    6.6515   -0.6188    0.0000 C   0  0  0  0  0  0  0  0  0  0  0  0
    3.0790    1.4438    0.0000 C   0  0  0  0  0  0  0  0  0  0  0  0
    1.6500    0.6188    0.0000 C   0  0  0  0  0  0  0  0  0  0  0  0
    2.3645    1.8563    0.0000 C   0  0  0  0  0  0  0  0  0  0  0  0
    6.6515    0.2063    0.0000 C   0  0  0  0  0  0  0  0  0  0  0  0
    1.6500    1.4438    0.0000 C   0  0  0  0  0  0  0  0  0  0  0  0
    8.0804   -0.6188    0.0000 C   0  0  0  0  0  0  0  0  0  0  0  0
    8.0804    0.2063    0.0000 C   0  0  0  0  0  0  0  0  0  0  0  0
    7.3659    0.6188    0.0000 C   0  0  0  0  0  0  0  0  0  0  0  0
    8.8180   -1.0599    0.0000 C   0  0  0  0  0  0  0  0  0  0  0  0
    8.8180    0.6474    0.0000 C   0  0  0  0  0  0  0  0  0  0  0  0
    9.5654   -0.6359    0.0000 C   0  0  0  0  0  0  0  0  0  0  0  0
    9.5654    0.2234    0.0000 C   0  0  0  0  0  0  0  0  0  0  0  0
  1 11  2  0  0  0  0
  2 12  1  0  0  0  0
  3  6  1  0  0  0  0
  3  7  1  0  0  0  0
  3 10  1  0  0  0  0
  4  8  1  0  0  0  0
  4  9  1  0  0  0  0
  4 11  1  0  0  0  0
  5 13  1  0  0  0  0
  5 19  2  0  0  0  0
  6  9  1  0  0  0  0
  7  8  1  0  0  0  0
 10 12  2  0  0  0  0
 10 14  1  0  0  0  0
 11 13  1  0  0  0  0
 12 15  1  0  0  0  0
 13 17  2  0  0  0  0
 14 16  2  0  0  0  0
 15 18  2  0  0  0  0
 16 18  1  0  0  0  0
 17 21  1  0  0  0  0
 19 20  1  0  0  0  0
 19 22  1  0  0  0  0
 20 21  2  0  0  0  0
 20 23  1  0  0  0  0
 22 24  2  0  0  0  0
 23 25  2  0  0  0  0
 24 25  1  0  0  0  0
M  END
> <From>
www.bindingDB.org

> <BindingDB Reactant_set_id>
108195

> <Ligand InChI>
InChI=1S/C20H19N3O2/c24-19-8-4-3-7-18(19)22-11-13-23(14-12-22)20(25)17-10-9-15-5-1-2-6-16(15)21-17/h1-10,24H,11-14H2

> <Ligand InChI Key>
KVSRWCYGUOGUHX-UHFFFAOYSA-N

> <BindingDB MonomerID>
43829

> <BindingDB Ligand Name>
Glucosamine derivative, 2::MLS000568543::SMR000154737::[4-(2-hydroxyphenyl)-1-piperazinyl]-(2-quinolinyl)methanone::[4-(2-hydroxyphenyl)piperazin-1-yl]-quinolin-2-yl-methanone::[4-(2-hydroxyphenyl)piperazin-1-yl]-quinolin-2-ylmethanone::[4-(2-hydroxyphenyl)piperazino]-(2-quinolyl)methanone::cid_2454966

> <Target Name>
DNA repair protein RAD51 homolog 1

> <Target Source Organism According to Curator or DataSource>
Homo sapiens

> <Ki (nM)>


> <IC50 (nM)>
 85000

> <Kd (nM)>


> <EC50 (nM)>


> <kon (M-1-s-1)>


> <koff (s-1)>


> <pH>


> <Temp C>


> <Curation/DataSource>
PubChem

> <Article DOI>


> <BindingDB Entry DOI>
10.7270/Q2BV7F1T

> <PMID>


> <PubChem AID>
aid1435

> <Patent Number>


> <Authors>
PubChem, PC

> <Date of publication>
11/21/2008

> <Date in BindingDB>
6/8/2011

> <Institution>
PCMD

> <Link to Ligand in BindingDB>
http://www.bindingdb.org/bind/chemsearch/marvin/MolStructure.jsp?monomerid=43829

> <Link to Ligand-Target Pair in BindingDB>
http://www.bindingdb.org/jsp/dbsearch/PrimarySearch_ki.jsp?energyterm=kJ/mole&tag=pol&polymerid=4676&target=DNA+repair+protein+RAD51+homolog+1&column=ki&startPg=0&Increment=50&submit=Search

> <Link to Ligand-Target Pair in BindingDB>
http://www.bindingdb.org/jsp/dbsearch/PrimarySearch_ki.jsp?energyterm=kJ/mole&tag=r21&monomerid=43829&enzyme=DNA+repair+protein+RAD51+homolog+1&column=ki&startPg=0&Increment=50&submit=Search

> <Ligand HET ID in PDB>


> <PDB ID(s) for Ligand-Target Complex>


> <PubChem CID of Ligand>
2454966

> <PubChem SID of Ligand>
123080187

> <ChEBI ID of Ligand>


> <ChEMBL ID of Ligand>


> <DrugBank ID of Ligand>


> <IUPHAR_GRAC ID of Ligand>


> <KEGG ID of Ligand>


> <ZINC ID of Ligand>
ZINC03338696

> <Number of Protein Chains in Target (bigger than 1 implies a multichain complex)>
1

> <BindingDB Target Chain Sequence>
MAMQMQLEANADTSVEEESFGPQPISRLEQCGINANDVKKLEEAGFHTVEAVAYAPKKELINIKGISEAKADKILAEAAKLVPMGFTTATEFHQRRSEIIQITTGSKELDKLLQGGIETGSITEMFGEFRTGKTQICHTLAVTCQLPIDRGGGEGKAMYIDTEGTFRPERLLAVAERYGLSGSDVLDNVAYARAFNTDHQTQLLYQASAMMVESRYALLIVDSATALYRTDYSGRGELSARQMHLARFLRMLLRLADEFGVAVVITNQVVAQVDGAAMFAADPKKPIGGNIIAHASTTRLYLRKGRGETRICKIYDSPCLPEAEAMFAINADGVGDAKD

> <PDB ID(s) of Target Chain>
1N0W,5JZC,5NP7,5NWL,8BQ2,8BR2,8BSC

> <UniProt (SwissProt) Recommended Name of Target Chain>
DNA repair protein RAD51 homolog 1

> <UniProt (SwissProt) Entry Name of Target Chain>
RAD51_HUMAN

> <UniProt (SwissProt) Primary ID of Target Chain>
Q06609

> <UniProt (SwissProt) Secondary ID(s) of Target Chain>
B0FXP0 B2R8T6 Q6FHX9 Q6ZNA8 Q9BV60

> <UniProt (SwissProt) Alternative ID(s) of Target Chain>


> <UniProt (TrEMBL) Submitted Name of Target Chain>


> <UniProt (TrEMBL) Entry Name of Target Chain>


> <UniProt (TrEMBL) Primary ID of Target Chain>


> <UniProt (TrEMBL) Secondary ID(s) of Target Chain>


> <UniProt (TrEMBL) Alternative ID(s) of Target Chain>


$$$$
2865032
  Mrv0541 11251415482D          

 29 31  0  0  0  0            999 V2000
    5.8146   -2.7861    0.0000 S   0  0  0  0  0  0  0  0  0  0  0  0
    3.1260    1.5082    0.0000 O   0  0  0  0  0  0  0  0  0  0  0  0
    3.0789    3.2306    0.0000 O   0  0  0  0  0  0  0  0  0  0  0  0
    2.8960    0.0562    0.0000 O   0  0  0  0  0  0  0  0  0  0  0  0
    4.8402   -1.3650    0.0000 N   0  0  0  0  0  0  0  0  0  0  0  0
    4.5047   -2.1186    0.0000 N   0  0  0  0  0  0  0  0  0  0  0  0
    4.7346   -3.5707    0.0000 N   0  0  0  0  0  0  0  0  0  0  0  0
    4.2060    0.7236    0.0000 C   0  0  0  0  0  0  0  0  0  0  0  0
    4.4609    1.5082    0.0000 C   0  0  0  0  0  0  0  0  0  0  0  0
    3.7935    1.9931    0.0000 C   0  0  0  0  0  0  0  0  0  0  0  0
    4.6909    0.0562    0.0000 C   0  0  0  0  0  0  0  0  0  0  0  0
    3.3809    0.7236    0.0000 C   0  0  0  0  0  0  0  0  0  0  0  0
    3.7935    2.8181    0.0000 C   0  0  0  0  0  0  0  0  0  0  0  0
    4.3553   -0.6975    0.0000 C   0  0  0  0  0  0  0  0  0  0  0  0
    3.0789    4.0556    0.0000 C   0  0  0  0  0  0  0  0  0  0  0  0
    2.3645    4.4681    0.0000 C   0  0  0  0  0  0  0  0  0  0  0  0
    3.5348   -0.7838    0.0000 C   0  0  0  0  0  0  0  0  0  0  0  0
    2.3645    5.2931    0.0000 C   0  0  0  0  0  0  0  0  0  0  0  0
    1.6500    5.7056    0.0000 C   0  0  0  0  0  0  0  0  0  0  0  0
    1.6500    6.5307    0.0000 C   0  0  0  0  0  0  0  0  0  0  0  0
    4.9896   -2.7861    0.0000 C   0  0  0  0  0  0  0  0  0  0  0  0
    5.4021   -4.0556    0.0000 C   0  0  0  0  0  0  0  0  0  0  0  0
    6.0696   -3.5707    0.0000 C   0  0  0  0  0  0  0  0  0  0  0  0
    5.4021   -4.8806    0.0000 C   0  0  0  0  0  0  0  0  0  0  0  0
    6.1166   -5.2931    0.0000 C   0  0  0  0  0  0  0  0  0  0  0  0
    4.6876   -5.2931    0.0000 C   0  0  0  0  0  0  0  0  0  0  0  0
    6.1166   -6.1181    0.0000 C   0  0  0  0  0  0  0  0  0  0  0  0
    4.6876   -6.1181    0.0000 C   0  0  0  0  0  0  0  0  0  0  0  0
    5.4021   -6.5307    0.0000 C   0  0  0  0  0  0  0  0  0  0  0  0
  1 21  1  0  0  0  0
  1 23  1  0  0  0  0
  2 10  1  0  0  0  0
  2 12  1  0  0  0  0
  3 13  1  0  0  0  0
  3 15  1  0  0  0  0
  4 12  2  0  0  0  0
  5  6  2  0  0  0  0
  5 14  1  4  0  0  0
  6 21  1  0  0  0  0
  7 21  2  0  0  0  0
  7 22  1  0  0  0  0
  8  9  1  0  0  0  0
  8 11  1  0  0  0  0
  8 12  1  0  0  0  0
  9 10  1  0  0  0  0
 10 13  1  0  0  0  0
 11 14  1  0  0  0  0
 14 17  1  0  0  0  0
 15 16  1  0  0  0  0
 16 18  1  0  0  0  0
 18 19  1  0  0  0  0
 19 20  1  0  0  0  0
 22 23  2  0  0  0  0
 22 24  1  0  0  0  0
 24 25  2  0  0  0  0
 24 26  1  0  0  0  0
 25 27  1  0  0  0  0
 26 28  2  0  0  0  0
 27 29  2  0  0  0  0
 28 29  1  0  0  0  0
M  END
> <From>
www.bindingDB.org

> <BindingDB Reactant_set_id>
108196

> <Ligand InChI>
InChI=1S/C22H29N3O3S/c1-3-4-8-11-27-14-19-13-18(21(26)28-19)12-16(2)24-25-22-23-20(15-29-22)17-9-6-5-7-10-17/h5-7,9-10,15-16,18-19H,3-4,8,11-14H2,1-2H3

> <Ligand InChI Key>
MZDDHFAEDSOAAM-UHFFFAOYSA-N

> <BindingDB MonomerID>
43830

> <BindingDB Ligand Name>
5-(amoxymethyl)-3-[2-[(4-phenylthiazol-2-yl)hydrazono]propyl]tetrahydrofuran-2-one::5-(pentoxymethyl)-3-[2-[(4-phenyl-1,3-thiazol-2-yl)hydrazinylidene]propyl]oxolan-2-one::5-(pentoxymethyl)-3-[2-[(4-phenyl-2-thiazolyl)hydrazinylidene]propyl]-2-oxolanone::5-Pentyloxymethyl-3-{2-[(4-phenyl-thiazol-2-yl)-hydrazono]-propyl}-dihydro-furan-2-one::Glucosamine derivative, 3::MLS000557649::SMR000174499::cid_2865032

> <Target Name>
DNA repair protein RAD51 homolog 1

> <Target Source Organism According to Curator or DataSource>
Homo sapiens

> <Ki (nM)>


> <IC50 (nM)>
 85000

> <Kd (nM)>


> <EC50 (nM)>


> <kon (M-1-s-1)>


> <koff (s-1)>


> <pH>


> <Temp C>


> <Curation/DataSource>
PubChem

> <Article DOI>


> <BindingDB Entry DOI>
10.7270/Q2BV7F1T

> <PMID>


> <PubChem AID>
aid1435

> <Patent Number>


> <Authors>
PubChem, PC

> <Date of publication>
11/21/2008

> <Date in BindingDB>
6/8/2011

> <Institution>
PCMD

> <Link to Ligand in BindingDB>
http://www.bindingdb.org/bind/chemsearch/marvin/MolStructure.jsp?monomerid=43830

> <Link to Ligand-Target Pair in BindingDB>
http://www.bindingdb.org/jsp/dbsearch/PrimarySearch_ki.jsp?energyterm=kJ/mole&tag=pol&polymerid=4676&target=DNA+repair+protein+RAD51+homolog+1&column=ki&startPg=0&Increment=50&submit=Search

> <Link to Ligand-Target Pair in BindingDB>
http://www.bindingdb.org/jsp/dbsearch/PrimarySearch_ki.jsp?energyterm=kJ/mole&tag=r21&monomerid=43830&enzyme=DNA+repair+protein+RAD51+homolog+1&column=ki&startPg=0&Increment=50&submit=Search

> <Ligand HET ID in PDB>


> <PDB ID(s) for Ligand-Target Complex>


> <PubChem CID of Ligand>
91896578

> <PubChem SID of Ligand>
123080188

> <ChEBI ID of Ligand>


> <ChEMBL ID of Ligand>


> <DrugBank ID of Ligand>


> <IUPHAR_GRAC ID of Ligand>


> <KEGG ID of Ligand>


> <ZINC ID of Ligand>
ZINC36108069

> <Number of Protein Chains in Target (bigger than 1 implies a multichain complex)>
1

> <BindingDB Target Chain Sequence>
MAMQMQLEANADTSVEEESFGPQPISRLEQCGINANDVKKLEEAGFHTVEAVAYAPKKELINIKGISEAKADKILAEAAKLVPMGFTTATEFHQRRSEIIQITTGSKELDKLLQGGIETGSITEMFGEFRTGKTQICHTLAVTCQLPIDRGGGEGKAMYIDTEGTFRPERLLAVAERYGLSGSDVLDNVAYARAFNTDHQTQLLYQASAMMVESRYALLIVDSATALYRTDYSGRGELSARQMHLARFLRMLLRLADEFGVAVVITNQVVAQVDGAAMFAADPKKPIGGNIIAHASTTRLYLRKGRGETRICKIYDSPCLPEAEAMFAINADGVGDAKD

> <PDB ID(s) of Target Chain>
1N0W,5JZC,5NP7,5NWL,8BQ2,8BR2,8BSC

> <UniProt (SwissProt) Recommended Name of Target Chain>
DNA repair protein RAD51 homolog 1

> <UniProt (SwissProt) Entry Name of Target Chain>
RAD51_HUMAN

> <UniProt (SwissProt) Primary ID of Target Chain>
Q06609

> <UniProt (SwissProt) Secondary ID(s) of Target Chain>
B0FXP0 B2R8T6 Q6FHX9 Q6ZNA8 Q9BV60

> <UniProt (SwissProt) Alternative ID(s) of Target Chain>


> <UniProt (TrEMBL) Submitted Name of Target Chain>


> <UniProt (TrEMBL) Entry Name of Target Chain>


> <UniProt (TrEMBL) Primary ID of Target Chain>


> <UniProt (TrEMBL) Secondary ID(s) of Target Chain>


> <UniProt (TrEMBL) Alternative ID(s) of Target Chain>


$$$$
1475682
  Mrv0541 11251415482D          

 22 24  0  0  0  0            999 V2000
    1.6500    1.2375    0.0000 F   0  0  0  0  0  0  0  0  0  0  0  0
    5.9370   -1.2375    0.0000 O   0  0  0  0  0  0  0  0  0  0  0  0
    9.1511    1.1270    0.0000 O   0  0  0  0  0  0  0  0  0  0  0  0
    9.1511   -0.3020    0.0000 O   0  0  0  0  0  0  0  0  0  0  0  0
    5.2224    0.0000    0.0000 N   0  0  0  0  0  0  0  0  0  0  0  0
    6.6515    0.8250    0.0000 N   0  0  0  0  0  0  0  0  0  0  0  0
    7.4321    1.0764    0.0000 N   0  0  0  0  0  0  0  0  0  0  0  0
    5.2224    0.8250    0.0000 C   0  0  0  0  0  0  0  0  0  0  0  0
    5.9370    1.2375    0.0000 C   0  0  0  0  0  0  0  0  0  0  0  0
    6.6515    0.0000    0.0000 C   0  0  0  0  0  0  0  0  0  0  0  0
    4.5080   -0.4125    0.0000 C   0  0  0  0  0  0  0  0  0  0  0  0
    5.9370   -0.4125    0.0000 C   0  0  0  0  0  0  0  0  0  0  0  0
    7.4321   -0.2514    0.0000 C   0  0  0  0  0  0  0  0  0  0  0  0
    3.7935    0.0000    0.0000 C   0  0  0  0  0  0  0  0  0  0  0  0
    7.9136    0.4125    0.0000 C   0  0  0  0  0  0  0  0  0  0  0  0
    3.0790   -0.4125    0.0000 C   0  0  0  0  0  0  0  0  0  0  0  0
    3.7935    0.8250    0.0000 C   0  0  0  0  0  0  0  0  0  0  0  0
    8.7386    0.4125    0.0000 C   0  0  0  0  0  0  0  0  0  0  0  0
    2.3645    0.0000    0.0000 C   0  0  0  0  0  0  0  0  0  0  0  0
    3.0790    1.2375    0.0000 C   0  0  0  0  0  0  0  0  0  0  0  0
    2.3645    0.8250    0.0000 C   0  0  0  0  0  0  0  0  0  0  0  0
    9.9761    1.1270    0.0000 C   0  0  0  0  0  0  0  0  0  0  0  0
  1 21  1  0  0  0  0
  2 12  2  0  0  0  0
  3 18  1  0  0  0  0
  3 22  1  0  0  0  0
  4 18  2  0  0  0  0
  5  8  1  0  0  0  0
  5 11  1  0  0  0  0
  5 12  1  0  0  0  0
  6  7  1  0  0  0  0
  6  9  1  0  0  0  0
  6 10  1  0  0  0  0
  7 15  2  0  0  0  0
  8  9  1  0  0  0  0
 10 12  1  0  0  0  0
 10 13  2  0  0  0  0
 11 14  1  0  0  0  0
 13 15  1  0  0  0  0
 14 16  2  0  0  0  0
 14 17  1  0  0  0  0
 15 18  1  0  0  0  0
 16 19  1  0  0  0  0
 17 20  2  0  0  0  0
 19 21  2  0  0  0  0
 20 21  1  0  0  0  0
M  END
> <From>
www.bindingDB.org

> <BindingDB Reactant_set_id>
108197

> <Ligand InChI>
InChI=1S/C15H14FN3O3/c1-22-15(21)12-8-13-14(20)18(6-7-19(13)17-12)9-10-2-4-11(16)5-3-10/h2-5,8H,6-7,9H2,1H3

> <Ligand InChI Key>
YVFQWAXEZSQJBV-UHFFFAOYSA-N

> <BindingDB MonomerID>
43831

> <BindingDB Ligand Name>
5-(4-fluorobenzyl)-4-keto-6,7-dihydropyrazolo[1,5-a]pyrazine-2-carboxylic acid methyl ester::5-[(4-fluorophenyl)methyl]-4-oxo-6,7-dihydropyrazolo[1,5-a]pyrazine-2-carboxylic acid methyl ester::Glucosamine derivative, 4::MLS000326913::SMR000179467::cid_1475682::methyl 5-(4-fluorobenzyl)-4-oxo-4,5,6,7-tetrahydropyrazolo[1,5-a]pyrazine-2-carboxylate::methyl 5-[(4-fluorophenyl)methyl]-4-oxidanylidene-6,7-dihydropyrazolo[1,5-a]pyrazine-2-carboxylate::methyl 5-[(4-fluorophenyl)methyl]-4-oxo-6,7-dihydropyrazolo[1,5-a]pyrazine-2-carboxylate

> <Target Name>
DNA repair protein RAD51 homolog 1

> <Target Source Organism According to Curator or DataSource>
Homo sapiens

> <Ki (nM)>


> <IC50 (nM)>
 42500

> <Kd (nM)>


> <EC50 (nM)>


> <kon (M-1-s-1)>


> <koff (s-1)>


> <pH>


> <Temp C>


> <Curation/DataSource>
PubChem

> <Article DOI>


> <BindingDB Entry DOI>
10.7270/Q2BV7F1T

> <PMID>


> <PubChem AID>
aid1435

> <Patent Number>


> <Authors>
PubChem, PC

> <Date of publication>
11/21/2008

> <Date in BindingDB>
6/8/2011

> <Institution>
PCMD

> <Link to Ligand in BindingDB>
http://www.bindingdb.org/bind/chemsearch/marvin/MolStructure.jsp?monomerid=43831

> <Link to Ligand-Target Pair in BindingDB>
http://www.bindingdb.org/jsp/dbsearch/PrimarySearch_ki.jsp?energyterm=kJ/mole&tag=pol&polymerid=4676&target=DNA+repair+protein+RAD51+homolog+1&column=ki&startPg=0&Increment=50&submit=Search

> <Link to Ligand-Target Pair in BindingDB>
http://www.bindingdb.org/jsp/dbsearch/PrimarySearch_ki.jsp?energyterm=kJ/mole&tag=r21&monomerid=43831&enzyme=DNA+repair+protein+RAD51+homolog+1&column=ki&startPg=0&Increment=50&submit=Search

> <Ligand HET ID in PDB>


> <PDB ID(s) for Ligand-Target Complex>


> <PubChem CID of Ligand>
1475682

> <PubChem SID of Ligand>
123080189

> <ChEBI ID of Ligand>


> <ChEMBL ID of Ligand>


> <DrugBank ID of Ligand>


> <IUPHAR_GRAC ID of Ligand>


> <KEGG ID of Ligand>


> <ZINC ID of Ligand>
ZINC01387817

> <Number of Protein Chains in Target (bigger than 1 implies a multichain complex)>
1

> <BindingDB Target Chain Sequence>
MAMQMQLEANADTSVEEESFGPQPISRLEQCGINANDVKKLEEAGFHTVEAVAYAPKKELINIKGISEAKADKILAEAAKLVPMGFTTATEFHQRRSEIIQITTGSKELDKLLQGGIETGSITEMFGEFRTGKTQICHTLAVTCQLPIDRGGGEGKAMYIDTEGTFRPERLLAVAERYGLSGSDVLDNVAYARAFNTDHQTQLLYQASAMMVESRYALLIVDSATALYRTDYSGRGELSARQMHLARFLRMLLRLADEFGVAVVITNQVVAQVDGAAMFAADPKKPIGGNIIAHASTTRLYLRKGRGETRICKIYDSPCLPEAEAMFAINADGVGDAKD

> <PDB ID(s) of Target Chain>
1N0W,5JZC,5NP7,5NWL,8BQ2,8BR2,8BSC

> <UniProt (SwissProt) Recommended Name of Target Chain>
DNA repair protein RAD51 homolog 1

> <UniProt (SwissProt) Entry Name of Target Chain>
RAD51_HUMAN

> <UniProt (SwissProt) Primary ID of Target Chain>
Q06609

> <UniProt (SwissProt) Secondary ID(s) of Target Chain>
B0FXP0 B2R8T6 Q6FHX9 Q6ZNA8 Q9BV60

> <UniProt (SwissProt) Alternative ID(s) of Target Chain>


> <UniProt (TrEMBL) Submitted Name of Target Chain>


> <UniProt (TrEMBL) Entry Name of Target Chain>


> <UniProt (TrEMBL) Primary ID of Target Chain>


> <UniProt (TrEMBL) Secondary ID(s) of Target Chain>


> <UniProt (TrEMBL) Alternative ID(s) of Target Chain>


$$$$
258820
  Mrv0541 11251415482D          

 19 20  0  0  1  0            999 V2000
    3.7935    1.5948    0.0000 O   0  0  0  0  0  0  0  0  0  0  0  0
    3.0790    0.3572    0.0000 O   0  0  0  0  0  0  0  0  0  0  0  0
    5.2224    1.5948    0.0000 O   0  0  0  0  0  0  0  0  0  0  0  0
    3.7935   -0.8803    0.0000 O   0  0  0  0  0  0  0  0  0  0  0  0
    4.5080    0.3572    0.0000 C   0  0  0  0  0  0  0  0  0  0  0  0
    4.9205   -0.3572    0.0000 C   0  0  0  0  0  0  0  0  0  0  0  0
    5.3330    0.3572    0.0000 C   0  0  0  0  0  0  0  0  0  0  0  0
    4.9205   -1.1823    0.0000 C   0  0  0  0  0  0  0  0  0  0  0  0
    4.5080    1.1823    0.0000 C   0  0  0  0  0  0  0  0  0  0  0  0
    3.7935   -0.0553    0.0000 C   0  0  0  0  0  0  0  0  0  0  0  0
    5.6350   -1.5948    0.0000 C   0  0  0  0  0  0  0  0  0  0  0  0
    4.2060   -1.5948    0.0000 C   0  0  0  0  0  0  0  0  0  0  0  0
    5.6350   -2.4198    0.0000 C   0  0  0  0  0  0  0  0  0  0  0  0
    4.2060   -2.4198    0.0000 C   0  0  0  0  0  0  0  0  0  0  0  0
    3.7935    2.4198    0.0000 C   0  0  0  0  0  0  0  0  0  0  0  0
    2.3645   -0.0553    0.0000 C   0  0  0  0  0  0  0  0  0  0  0  0
    4.9205   -2.8323    0.0000 C   0  0  0  0  0  0  0  0  0  0  0  0
    3.0790    2.8323    0.0000 C   0  0  0  0  0  0  0  0  0  0  0  0
    1.6500    0.3572    0.0000 C   0  0  0  0  0  0  0  0  0  0  0  0
  1  9  1  0  0  0  0
  1 15  1  0  0  0  0
  2 10  1  0  0  0  0
  2 16  1  0  0  0  0
  3  9  2  0  0  0  0
  4 10  2  0  0  0  0
  5  6  1  0  0  0  0
  5  7  1  0  0  0  0
  5  9  1  0  0  0  0
  5 10  1  0  0  0  0
  6  7  1  0  0  0  0
  6  8  1  0  0  0  0
  8 11  2  0  0  0  0
  8 12  1  0  0  0  0
 11 13  1  0  0  0  0
 12 14  2  0  0  0  0
 13 17  2  0  0  0  0
 14 17  1  0  0  0  0
 15 18  1  0  0  0  0
 16 19  1  0  0  0  0
M  END
> <From>
www.bindingDB.org

> <BindingDB Reactant_set_id>
108198

> <Ligand InChI>
InChI=1S/C15H18O4/c1-3-18-13(16)15(14(17)19-4-2)10-12(15)11-8-6-5-7-9-11/h5-9,12H,3-4,10H2,1-2H3

> <Ligand InChI Key>
AIBJDWXTNYIAKH-UHFFFAOYSA-N

> <BindingDB MonomerID>
43832

> <BindingDB Ligand Name>
2-phenylcyclopropane-1,1-dicarboxylic acid diethyl ester::Glucosamine derivative, 5::MLS000326954::SMR000179481::cid_258820::diethyl 2-phenyl-1,1-cyclopropanedicarboxylate::diethyl 2-phenylcyclopropane-1,1-dicarboxylate

> <Target Name>
DNA repair protein RAD51 homolog 1

> <Target Source Organism According to Curator or DataSource>
Homo sapiens

> <Ki (nM)>


> <IC50 (nM)>
 85000

> <Kd (nM)>


> <EC50 (nM)>


> <kon (M-1-s-1)>


> <koff (s-1)>


> <pH>


> <Temp C>


> <Curation/DataSource>
PubChem

> <Article DOI>


> <BindingDB Entry DOI>
10.7270/Q2BV7F1T

> <PMID>


> <PubChem AID>
aid1435

> <Patent Number>


> <Authors>
PubChem, PC

> <Date of publication>
11/21/2008

> <Date in BindingDB>
6/8/2011

> <Institution>
PCMD

> <Link to Ligand in BindingDB>
http://www.bindingdb.org/bind/chemsearch/marvin/MolStructure.jsp?monomerid=43832

> <Link to Ligand-Target Pair in BindingDB>
http://www.bindingdb.org/jsp/dbsearch/PrimarySearch_ki.jsp?energyterm=kJ/mole&tag=pol&polymerid=4676&target=DNA+repair+protein+RAD51+homolog+1&column=ki&startPg=0&Increment=50&submit=Search

> <Link to Ligand-Target Pair in BindingDB>
http://www.bindingdb.org/jsp/dbsearch/PrimarySearch_ki.jsp?energyterm=kJ/mole&tag=r21&monomerid=43832&enzyme=DNA+repair+protein+RAD51+homolog+1&column=ki&startPg=0&Increment=50&submit=Search

> <Ligand HET ID in PDB>


> <PDB ID(s) for Ligand-Target Complex>


> <PubChem CID of Ligand>
258820

> <PubChem SID of Ligand>
123080190

> <ChEBI ID of Ligand>


> <ChEMBL ID of Ligand>


> <DrugBank ID of Ligand>


> <IUPHAR_GRAC ID of Ligand>


> <KEGG ID of Ligand>


> <ZINC ID of Ligand>
ZINC01392770

> <Number of Protein Chains in Target (bigger than 1 implies a multichain complex)>
1

> <BindingDB Target Chain Sequence>
MAMQMQLEANADTSVEEESFGPQPISRLEQCGINANDVKKLEEAGFHTVEAVAYAPKKELINIKGISEAKADKILAEAAKLVPMGFTTATEFHQRRSEIIQITTGSKELDKLLQGGIETGSITEMFGEFRTGKTQICHTLAVTCQLPIDRGGGEGKAMYIDTEGTFRPERLLAVAERYGLSGSDVLDNVAYARAFNTDHQTQLLYQASAMMVESRYALLIVDSATALYRTDYSGRGELSARQMHLARFLRMLLRLADEFGVAVVITNQVVAQVDGAAMFAADPKKPIGGNIIAHASTTRLYLRKGRGETRICKIYDSPCLPEAEAMFAINADGVGDAKD

> <PDB ID(s) of Target Chain>
1N0W,5JZC,5NP7,5NWL,8BQ2,8BR2,8BSC

> <UniProt (SwissProt) Recommended Name of Target Chain>
DNA repair protein RAD51 homolog 1

> <UniProt (SwissProt) Entry Name of Target Chain>
RAD51_HUMAN

> <UniProt (SwissProt) Primary ID of Target Chain>
Q06609

> <UniProt (SwissProt) Secondary ID(s) of Target Chain>
B0FXP0 B2R8T6 Q6FHX9 Q6ZNA8 Q9BV60

> <UniProt (SwissProt) Alternative ID(s) of Target Chain>


> <UniProt (TrEMBL) Submitted Name of Target Chain>


> <UniProt (TrEMBL) Entry Name of Target Chain>


> <UniProt (TrEMBL) Primary ID of Target Chain>


> <UniProt (TrEMBL) Secondary ID(s) of Target Chain>


> <UniProt (TrEMBL) Alternative ID(s) of Target Chain>


$$$$
749340
  Mrv0541 11251415482D          

 20 21  0  0  0  0            999 V2000
    4.6185   -2.7861    0.0000 O   0  0  0  0  0  0  0  0  0  0  0  0
    3.1895    1.3390    0.0000 O   0  0  0  0  0  0  0  0  0  0  0  0
    3.9040    2.5765    0.0000 O   0  0  0  0  0  0  0  0  0  0  0  0
    3.1895   -0.3110    0.0000 N   0  0  0  0  0  0  0  0  0  0  0  0
    3.9040    0.1015    0.0000 N   0  0  0  0  0  0  0  0  0  0  0  0
    2.4751   -2.3736    0.0000 C   0  0  0  0  0  0  0  0  0  0  0  0
    2.4751   -1.5486    0.0000 C   0  0  0  0  0  0  0  0  0  0  0  0
    3.1895   -2.7861    0.0000 C   0  0  0  0  0  0  0  0  0  0  0  0
    2.0625   -3.0880    0.0000 C   0  0  0  0  0  0  0  0  0  0  0  0
    1.6500   -2.3736    0.0000 C   0  0  0  0  0  0  0  0  0  0  0  0
    3.1895   -1.1360    0.0000 C   0  0  0  0  0  0  0  0  0  0  0  0
    3.9040   -2.3736    0.0000 C   0  0  0  0  0  0  0  0  0  0  0  0
    3.9040   -1.5486    0.0000 C   0  0  0  0  0  0  0  0  0  0  0  0
    3.9040    0.9265    0.0000 C   0  0  0  0  0  0  0  0  0  0  0  0
    4.6185    1.3390    0.0000 C   0  0  0  0  0  0  0  0  0  0  0  0
    4.6185    2.1640    0.0000 C   0  0  0  0  0  0  0  0  0  0  0  0
    5.3330    0.9265    0.0000 C   0  0  0  0  0  0  0  0  0  0  0  0
    5.3330    2.5765    0.0000 C   0  0  0  0  0  0  0  0  0  0  0  0
    6.0475    1.3390    0.0000 C   0  0  0  0  0  0  0  0  0  0  0  0
    6.0475    2.1640    0.0000 C   0  0  0  0  0  0  0  0  0  0  0  0
  1 12  2  0  0  0  0
  2 14  2  0  0  0  0
  3 16  1  0  0  0  0
  4  5  1  0  0  0  0
  4 11  1  0  0  0  0
  5 14  1  0  0  0  0
  6  7  1  0  0  0  0
  6  8  1  0  0  0  0
  6  9  1  0  0  0  0
  6 10  1  0  0  0  0
  7 11  1  0  0  0  0
  8 12  1  0  0  0  0
 11 13  2  0  0  0  0
 12 13  1  0  0  0  0
 14 15  1  0  0  0  0
 15 16  2  0  0  0  0
 15 17  1  0  0  0  0
 16 18  1  0  0  0  0
 17 19  2  0  0  0  0
 18 20  2  0  0  0  0
 19 20  1  0  0  0  0
M  END
> <From>
www.bindingDB.org

> <BindingDB Reactant_set_id>
108199

> <Ligand InChI>
InChI=1S/C15H18N2O3/c1-15(2)8-10(7-11(18)9-15)16-17-14(20)12-5-3-4-6-13(12)19/h3-7,16,19H,8-9H2,1-2H3,(H,17,20)

> <Ligand InChI Key>
KFDZBIOHUZHVNU-UHFFFAOYSA-N

> <BindingDB MonomerID>
43833

> <BindingDB Ligand Name>
2-hydroxy-N''''-(3-keto-5,5-dimethyl-cyclohexen-1-yl)benzohydrazide::2-hydroxy-N''-(3-keto-5,5-dimethyl-cyclohexen-1-yl)benzohydrazide::2-hydroxy-N'-(3-keto-5,5-dimethyl-cyclohexen-1-yl)benzohydrazide::Glucosamine derivative, 6::MLS000576033::N&#39;-(5,5-dimethyl-3-oxo-1-cyclohexen-1-yl)-2-hydroxybenzohydrazide::N''''-(5,5-dimethyl-3-oxidanylidene-cyclohexen-1-yl)-2-oxidanyl-benzohydrazide::N''''-(5,5-dimethyl-3-oxo-1-cyclohexenyl)-2-hydroxybenzohydrazide::N''''-(5,5-dimethyl-3-oxocyclohexen-1-yl)-2-hydroxybenzohydrazide::SMR000185773::cid_749340

> <Target Name>
DNA repair protein RAD51 homolog 1

> <Target Source Organism According to Curator or DataSource>
Homo sapiens

> <Ki (nM)>


> <IC50 (nM)>
 42500

> <Kd (nM)>


> <EC50 (nM)>


> <kon (M-1-s-1)>


> <koff (s-1)>


> <pH>


> <Temp C>


> <Curation/DataSource>
PubChem

> <Article DOI>


> <BindingDB Entry DOI>
10.7270/Q2BV7F1T

> <PMID>


> <PubChem AID>
aid1435

> <Patent Number>


> <Authors>
PubChem, PC

> <Date of publication>
11/21/2008

> <Date in BindingDB>
6/8/2011

> <Institution>
PCMD

> <Link to Ligand in BindingDB>
http://www.bindingdb.org/bind/chemsearch/marvin/MolStructure.jsp?monomerid=43833

> <Link to Ligand-Target Pair in BindingDB>
http://www.bindingdb.org/jsp/dbsearch/PrimarySearch_ki.jsp?energyterm=kJ/mole&tag=pol&polymerid=4676&target=DNA+repair+protein+RAD51+homolog+1&column=ki&startPg=0&Increment=50&submit=Search

> <Link to Ligand-Target Pair in BindingDB>
http://www.bindingdb.org/jsp/dbsearch/PrimarySearch_ki.jsp?energyterm=kJ/mole&tag=r21&monomerid=43833&enzyme=DNA+repair+protein+RAD51+homolog+1&column=ki&startPg=0&Increment=50&submit=Search

> <Ligand HET ID in PDB>


> <PDB ID(s) for Ligand-Target Complex>


> <PubChem CID of Ligand>
749340

> <PubChem SID of Ligand>
123080191

> <ChEBI ID of Ligand>


> <ChEMBL ID of Ligand>


> <DrugBank ID of Ligand>


> <IUPHAR_GRAC ID of Ligand>


> <KEGG ID of Ligand>


> <ZINC ID of Ligand>
ZINC04551142

> <Number of Protein Chains in Target (bigger than 1 implies a multichain complex)>
1

> <BindingDB Target Chain Sequence>
MAMQMQLEANADTSVEEESFGPQPISRLEQCGINANDVKKLEEAGFHTVEAVAYAPKKELINIKGISEAKADKILAEAAKLVPMGFTTATEFHQRRSEIIQITTGSKELDKLLQGGIETGSITEMFGEFRTGKTQICHTLAVTCQLPIDRGGGEGKAMYIDTEGTFRPERLLAVAERYGLSGSDVLDNVAYARAFNTDHQTQLLYQASAMMVESRYALLIVDSATALYRTDYSGRGELSARQMHLARFLRMLLRLADEFGVAVVITNQVVAQVDGAAMFAADPKKPIGGNIIAHASTTRLYLRKGRGETRICKIYDSPCLPEAEAMFAINADGVGDAKD

> <PDB ID(s) of Target Chain>
1N0W,5JZC,5NP7,5NWL,8BQ2,8BR2,8BSC

> <UniProt (SwissProt) Recommended Name of Target Chain>
DNA repair protein RAD51 homolog 1

> <UniProt (SwissProt) Entry Name of Target Chain>
RAD51_HUMAN

> <UniProt (SwissProt) Primary ID of Target Chain>
Q06609

> <UniProt (SwissProt) Secondary ID(s) of Target Chain>
B0FXP0 B2R8T6 Q6FHX9 Q6ZNA8 Q9BV60

> <UniProt (SwissProt) Alternative ID(s) of Target Chain>


> <UniProt (TrEMBL) Submitted Name of Target Chain>


> <UniProt (TrEMBL) Entry Name of Target Chain>


> <UniProt (TrEMBL) Primary ID of Target Chain>


> <UniProt (TrEMBL) Secondary ID(s) of Target Chain>


> <UniProt (TrEMBL) Alternative ID(s) of Target Chain>


$$$$
1375657
  Mrv0541 11251415482D          

 26 28  0  0  0  0            999 V2000
    2.0930    1.4438    0.0000 O   0  0  0  0  0  0  0  0  0  0  0  0
    2.0930    3.0938    0.0000 O   0  0  0  0  0  0  0  0  0  0  0  0
    4.2365    4.3313    0.0000 O   0  5  0  0  0  0  0  0  0  0  0  0
    2.8075    4.3313    0.0000 O   0  0  0  0  0  0  0  0  0  0  0  0
    4.9509    0.6188    0.0000 N   0  0  0  0  0  0  0  0  0  0  0  0
    4.9509   -1.0313    0.0000 N   0  0  0  0  0  0  0  0  0  0  0  0
    3.5220    3.9188    0.0000 N   0  3  0  0  0  0  0  0  0  0  0  0
    4.2365    0.2063    0.0000 C   0  0  0  0  0  0  0  0  0  0  0  0
    5.6655    0.2063    0.0000 C   0  0  0  0  0  0  0  0  0  0  0  0
    4.2365   -0.6188    0.0000 C   0  0  0  0  0  0  0  0  0  0  0  0
    5.6655   -0.6188    0.0000 C   0  0  0  0  0  0  0  0  0  0  0  0
    4.9509    1.4438    0.0000 C   0  0  0  0  0  0  0  0  0  0  0  0
    4.9509   -1.8563    0.0000 C   0  0  0  0  0  0  0  0  0  0  0  0
    4.2365    1.8563    0.0000 C   0  0  0  0  0  0  0  0  0  0  0  0
    5.6655   -2.2688    0.0000 C   0  0  0  0  0  0  0  0  0  0  0  0
    4.2365   -2.2688    0.0000 C   0  0  0  0  0  0  0  0  0  0  0  0
    4.2365    2.6813    0.0000 C   0  0  0  0  0  0  0  0  0  0  0  0
    3.5220    1.4438    0.0000 C   0  0  0  0  0  0  0  0  0  0  0  0
    5.6655   -3.0938    0.0000 C   0  0  0  0  0  0  0  0  0  0  0  0
    4.2365   -3.0938    0.0000 C   0  0  0  0  0  0  0  0  0  0  0  0
    4.9509   -3.5063    0.0000 C   0  0  0  0  0  0  0  0  0  0  0  0
    3.5220    3.0938    0.0000 C   0  0  0  0  0  0  0  0  0  0  0  0
    2.8075    1.8563    0.0000 C   0  0  0  0  0  0  0  0  0  0  0  0
    2.8075    2.6813    0.0000 C   0  0  0  0  0  0  0  0  0  0  0  0
    4.9509   -4.3313    0.0000 C   0  0  0  0  0  0  0  0  0  0  0  0
    2.0930    0.6188    0.0000 C   0  0  0  0  0  0  0  0  0  0  0  0
  1 23  1  0  0  0  0
  1 26  1  0  0  0  0
  2 24  1  0  0  0  0
  3  7  1  0  0  0  0
  4  7  2  0  0  0  0
  5  8  1  0  0  0  0
  5  9  1  0  0  0  0
  5 12  1  0  0  0  0
  6 10  1  0  0  0  0
  6 11  1  0  0  0  0
  6 13  1  0  0  0  0
  7 22  1  0  0  0  0
  8 10  1  0  0  0  0
  9 11  1  0  0  0  0
 12 14  1  0  0  0  0
 13 15  2  0  0  0  0
 13 16  1  0  0  0  0
 14 17  2  0  0  0  0
 14 18  1  0  0  0  0
 15 19  1  0  0  0  0
 16 20  2  0  0  0  0
 17 22  1  0  0  0  0
 18 23  2  0  0  0  0
 19 21  2  0  0  0  0
 20 21  1  0  0  0  0
 21 25  1  0  0  0  0
 22 24  2  0  0  0  0
 23 24  1  0  0  0  0
M  CHG  2   3  -1   7   1
M  END
> <From>
www.bindingDB.org

> <BindingDB Reactant_set_id>
108200

> <Ligand InChI>
InChI=1S/C19H23N3O4/c1-14-3-5-16(6-4-14)21-9-7-20(8-10-21)13-15-11-17(22(24)25)19(23)18(12-15)26-2/h3-6,11-12,23H,7-10,13H2,1-2H3

> <Ligand InChI Key>
IXDVAXNWWNGSIG-UHFFFAOYSA-N

> <BindingDB MonomerID>
43834

> <BindingDB Ligand Name>
2-methoxy-4-[[4-(4-methylphenyl)-1-piperazinyl]methyl]-6-nitrophenol::2-methoxy-4-[[4-(4-methylphenyl)piperazin-1-yl]methyl]-6-nitro-phenol::2-methoxy-4-[[4-(4-methylphenyl)piperazin-1-yl]methyl]-6-nitrophenol::2-methoxy-4-{[4-(4-methylphenyl)-1-piperazinyl]methyl}-6-nitrophenol::2-methoxy-6-nitro-4-[[4-(p-tolyl)piperazino]methyl]phenol::Glucosamine derivative, 7::MLS000576050::SMR000185790::cid_1375657

> <Target Name>
DNA repair protein RAD51 homolog 1

> <Target Source Organism According to Curator or DataSource>
Homo sapiens

> <Ki (nM)>


> <IC50 (nM)>
 85000

> <Kd (nM)>


> <EC50 (nM)>


> <kon (M-1-s-1)>


> <koff (s-1)>


> <pH>


> <Temp C>


> <Curation/DataSource>
PubChem

> <Article DOI>


> <BindingDB Entry DOI>
10.7270/Q2BV7F1T

> <PMID>


> <PubChem AID>
aid1435

> <Patent Number>


> <Authors>
PubChem, PC

> <Date of publication>
11/21/2008

> <Date in BindingDB>
6/8/2011

> <Institution>
PCMD

> <Link to Ligand in BindingDB>
http://www.bindingdb.org/bind/chemsearch/marvin/MolStructure.jsp?monomerid=43834

> <Link to Ligand-Target Pair in BindingDB>
http://www.bindingdb.org/jsp/dbsearch/PrimarySearch_ki.jsp?energyterm=kJ/mole&tag=pol&polymerid=4676&target=DNA+repair+protein+RAD51+homolog+1&column=ki&startPg=0&Increment=50&submit=Search

> <Link to Ligand-Target Pair in BindingDB>
http://www.bindingdb.org/jsp/dbsearch/PrimarySearch_ki.jsp?energyterm=kJ/mole&tag=r21&monomerid=43834&enzyme=DNA+repair+protein+RAD51+homolog+1&column=ki&startPg=0&Increment=50&submit=Search

> <Ligand HET ID in PDB>


> <PDB ID(s) for Ligand-Target Complex>


> <PubChem CID of Ligand>
1375657

> <PubChem SID of Ligand>
123080192

> <ChEBI ID of Ligand>


> <ChEMBL ID of Ligand>


> <DrugBank ID of Ligand>


> <IUPHAR_GRAC ID of Ligand>


> <KEGG ID of Ligand>


> <ZINC ID of Ligand>
ZINC35335365

> <Number of Protein Chains in Target (bigger than 1 implies a multichain complex)>
1

> <BindingDB Target Chain Sequence>
MAMQMQLEANADTSVEEESFGPQPISRLEQCGINANDVKKLEEAGFHTVEAVAYAPKKELINIKGISEAKADKILAEAAKLVPMGFTTATEFHQRRSEIIQITTGSKELDKLLQGGIETGSITEMFGEFRTGKTQICHTLAVTCQLPIDRGGGEGKAMYIDTEGTFRPERLLAVAERYGLSGSDVLDNVAYARAFNTDHQTQLLYQASAMMVESRYALLIVDSATALYRTDYSGRGELSARQMHLARFLRMLLRLADEFGVAVVITNQVVAQVDGAAMFAADPKKPIGGNIIAHASTTRLYLRKGRGETRICKIYDSPCLPEAEAMFAINADGVGDAKD

> <PDB ID(s) of Target Chain>
1N0W,5JZC,5NP7,5NWL,8BQ2,8BR2,8BSC

> <UniProt (SwissProt) Recommended Name of Target Chain>
DNA repair protein RAD51 homolog 1

> <UniProt (SwissProt) Entry Name of Target Chain>
RAD51_HUMAN

> <UniProt (SwissProt) Primary ID of Target Chain>
Q06609

> <UniProt (SwissProt) Secondary ID(s) of Target Chain>
B0FXP0 B2R8T6 Q6FHX9 Q6ZNA8 Q9BV60

> <UniProt (SwissProt) Alternative ID(s) of Target Chain>


> <UniProt (TrEMBL) Submitted Name of Target Chain>


> <UniProt (TrEMBL) Entry Name of Target Chain>


> <UniProt (TrEMBL) Primary ID of Target Chain>


> <UniProt (TrEMBL) Secondary ID(s) of Target Chain>


> <UniProt (TrEMBL) Alternative ID(s) of Target Chain>


$$$$
2967968
  Mrv0541 11251415482D          

 24 26  0  0  0  0            999 V2000
    3.7935    0.6188    0.0000 O   0  0  0  0  0  0  0  0  0  0  0  0
    5.9370   -3.0938    0.0000 O   0  5  0  0  0  0  0  0  0  0  0  0
    6.6515   -1.8563    0.0000 O   0  0  0  0  0  0  0  0  0  0  0  0
    3.0790   -0.6188    0.0000 N   0  0  0  0  0  0  0  0  0  0  0  0
    5.2224    0.6188    0.0000 N   0  0  0  0  0  0  0  0  0  0  0  0
    5.9370   -2.2688    0.0000 N   0  3  0  0  0  0  0  0  0  0  0  0
    5.2224    1.4438    0.0000 C   0  0  0  0  0  0  0  0  0  0  0  0
    5.9370    1.8563    0.0000 C   0  0  0  0  0  0  0  0  0  0  0  0
    4.5080    1.8563    0.0000 C   0  0  0  0  0  0  0  0  0  0  0  0
    5.9370    2.6813    0.0000 C   0  0  0  0  0  0  0  0  0  0  0  0
    4.5080    2.6813    0.0000 C   0  0  0  0  0  0  0  0  0  0  0  0
    5.2224    3.0938    0.0000 C   0  0  0  0  0  0  0  0  0  0  0  0
    3.0790    0.2063    0.0000 C   0  0  0  0  0  0  0  0  0  0  0  0
    2.3645   -1.0313    0.0000 C   0  0  0  0  0  0  0  0  0  0  0  0
    1.6500   -0.6188    0.0000 C   0  0  0  0  0  0  0  0  0  0  0  0
    2.3645    0.6188    0.0000 C   0  0  0  0  0  0  0  0  0  0  0  0
    1.6500    0.2063    0.0000 C   0  0  0  0  0  0  0  0  0  0  0  0
    3.7935   -1.0313    0.0000 C   0  0  0  0  0  0  0  0  0  0  0  0
    4.5080   -0.6188    0.0000 C   0  0  0  0  0  0  0  0  0  0  0  0
    4.5080    0.2063    0.0000 C   0  0  0  0  0  0  0  0  0  0  0  0
    3.7935   -1.8563    0.0000 C   0  0  0  0  0  0  0  0  0  0  0  0
    5.2224   -1.0313    0.0000 C   0  0  0  0  0  0  0  0  0  0  0  0
    5.2224   -1.8563    0.0000 C   0  0  0  0  0  0  0  0  0  0  0  0
    4.5080   -2.2688    0.0000 C   0  0  0  0  0  0  0  0  0  0  0  0
  1 20  2  0  0  0  0
  2  6  1  0  0  0  0
  3  6  2  0  0  0  0
  4 13  1  0  0  0  0
  4 14  1  0  0  0  0
  4 18  1  0  0  0  0
  5  7  1  0  0  0  0
  5 20  1  0  0  0  0
  6 23  1  0  0  0  0
  7  8  1  0  0  0  0
  7  9  1  0  0  0  0
  8 10  1  0  0  0  0
  9 11  1  0  0  0  0
 10 12  1  0  0  0  0
 11 12  1  0  0  0  0
 13 16  1  0  0  0  0
 14 15  1  0  0  0  0
 15 17  1  0  0  0  0
 16 17  1  0  0  0  0
 18 19  2  0  0  0  0
 18 21  1  0  0  0  0
 19 20  1  0  0  0  0
 19 22  1  0  0  0  0
 21 24  2  0  0  0  0
 22 23  2  0  0  0  0
 23 24  1  0  0  0  0
M  CHG  2   2  -1   6   1
M  END
> <From>
www.bindingDB.org

> <BindingDB Reactant_set_id>
108201

> <Ligand InChI>
InChI=1S/C18H25N3O3/c22-18(19-14-7-3-1-4-8-14)16-13-15(21(23)24)9-10-17(16)20-11-5-2-6-12-20/h9-10,13-14H,1-8,11-12H2,(H,19,22)

> <Ligand InChI Key>
XKERFMALTBEROZ-UHFFFAOYSA-N

> <BindingDB MonomerID>
43835

> <BindingDB Ligand Name>
Glucosamine derivative, 8::MLS000582359::N-cyclohexyl-5-nitro-2-(1-piperidinyl)benzamide::N-cyclohexyl-5-nitro-2-piperidin-1-yl-benzamide::N-cyclohexyl-5-nitro-2-piperidin-1-ylbenzamide::N-cyclohexyl-5-nitro-2-piperidino-benzamide::SMR000200900::cid_2967968

> <Target Name>
DNA repair protein RAD51 homolog 1

> <Target Source Organism According to Curator or DataSource>
Homo sapiens

> <Ki (nM)>


> <IC50 (nM)>
 42500

> <Kd (nM)>


> <EC50 (nM)>


> <kon (M-1-s-1)>


> <koff (s-1)>


> <pH>


> <Temp C>


> <Curation/DataSource>
PubChem

> <Article DOI>


> <BindingDB Entry DOI>
10.7270/Q2BV7F1T

> <PMID>


> <PubChem AID>
aid1435

> <Patent Number>


> <Authors>
PubChem, PC

> <Date of publication>
11/21/2008

> <Date in BindingDB>
6/8/2011

> <Institution>
PCMD

> <Link to Ligand in BindingDB>
http://www.bindingdb.org/bind/chemsearch/marvin/MolStructure.jsp?monomerid=43835

> <Link to Ligand-Target Pair in BindingDB>
http://www.bindingdb.org/jsp/dbsearch/PrimarySearch_ki.jsp?energyterm=kJ/mole&tag=pol&polymerid=4676&target=DNA+repair+protein+RAD51+homolog+1&column=ki&startPg=0&Increment=50&submit=Search

> <Link to Ligand-Target Pair in BindingDB>
http://www.bindingdb.org/jsp/dbsearch/PrimarySearch_ki.jsp?energyterm=kJ/mole&tag=r21&monomerid=43835&enzyme=DNA+repair+protein+RAD51+homolog+1&column=ki&startPg=0&Increment=50&submit=Search

> <Ligand HET ID in PDB>


> <PDB ID(s) for Ligand-Target Complex>


> <PubChem CID of Ligand>
2967968

> <PubChem SID of Ligand>
123080193

> <ChEBI ID of Ligand>


> <ChEMBL ID of Ligand>


> <DrugBank ID of Ligand>


> <IUPHAR_GRAC ID of Ligand>


> <KEGG ID of Ligand>


> <ZINC ID of Ligand>
ZINC05050848

> <Number of Protein Chains in Target (bigger than 1 implies a multichain complex)>
1

> <BindingDB Target Chain Sequence>
MAMQMQLEANADTSVEEESFGPQPISRLEQCGINANDVKKLEEAGFHTVEAVAYAPKKELINIKGISEAKADKILAEAAKLVPMGFTTATEFHQRRSEIIQITTGSKELDKLLQGGIETGSITEMFGEFRTGKTQICHTLAVTCQLPIDRGGGEGKAMYIDTEGTFRPERLLAVAERYGLSGSDVLDNVAYARAFNTDHQTQLLYQASAMMVESRYALLIVDSATALYRTDYSGRGELSARQMHLARFLRMLLRLADEFGVAVVITNQVVAQVDGAAMFAADPKKPIGGNIIAHASTTRLYLRKGRGETRICKIYDSPCLPEAEAMFAINADGVGDAKD

> <PDB ID(s) of Target Chain>
1N0W,5JZC,5NP7,5NWL,8BQ2,8BR2,8BSC

> <UniProt (SwissProt) Recommended Name of Target Chain>
DNA repair protein RAD51 homolog 1

> <UniProt (SwissProt) Entry Name of Target Chain>
RAD51_HUMAN

> <UniProt (SwissProt) Primary ID of Target Chain>
Q06609

> <UniProt (SwissProt) Secondary ID(s) of Target Chain>
B0FXP0 B2R8T6 Q6FHX9 Q6ZNA8 Q9BV60

> <UniProt (SwissProt) Alternative ID(s) of Target Chain>


> <UniProt (TrEMBL) Submitted Name of Target Chain>


> <UniProt (TrEMBL) Entry Name of Target Chain>


> <UniProt (TrEMBL) Primary ID of Target Chain>


> <UniProt (TrEMBL) Secondary ID(s) of Target Chain>


> <UniProt (TrEMBL) Alternative ID(s) of Target Chain>


$$$$
1295005
  Mrv0541 11251415482D          

 33 36  0  0  0  0            999 V2000
    5.2223    1.6357    0.0000 S   0  0  0  0  0  0  0  0  0  0  0  0
    4.3973    1.6357    0.0000 O   0  0  0  0  0  0  0  0  0  0  0  0
    6.0473    1.6357    0.0000 O   0  0  0  0  0  0  0  0  0  0  0  0
    5.2223   -3.3143    0.0000 O   0  0  0  0  0  0  0  0  0  0  0  0
    5.9369   -0.4268    0.0000 O   0  0  0  0  0  0  0  0  0  0  0  0
    2.3644   -1.6643    0.0000 O   0  0  0  0  0  0  0  0  0  0  0  0
    5.2223    0.8107    0.0000 N   0  0  0  0  0  0  0  0  0  0  0  0
    6.6743    2.4321    0.0000 N   0  0  0  0  0  0  0  0  0  0  0  0
    5.2223   -1.6643    0.0000 N   0  0  0  0  0  0  0  0  0  0  0  0
    5.2223    2.4607    0.0000 C   0  0  0  0  0  0  0  0  0  0  0  0
    5.9369    2.8732    0.0000 C   0  0  0  0  0  0  0  0  0  0  0  0
    4.5079    0.3982    0.0000 C   0  0  0  0  0  0  0  0  0  0  0  0
    5.9369    3.6982    0.0000 C   0  0  0  0  0  0  0  0  0  0  0  0
    4.5079   -0.4268    0.0000 C   0  0  0  0  0  0  0  0  0  0  0  0
    4.5079    2.8732    0.0000 C   0  0  0  0  0  0  0  0  0  0  0  0
    5.2223    4.1107    0.0000 C   0  0  0  0  0  0  0  0  0  0  0  0
    4.5079    3.6982    0.0000 C   0  0  0  0  0  0  0  0  0  0  0  0
    3.7934    0.8107    0.0000 C   0  0  0  0  0  0  0  0  0  0  0  0
    5.2223   -0.8393    0.0000 C   0  0  0  0  0  0  0  0  0  0  0  0
    6.6743    4.1393    0.0000 C   0  0  0  0  0  0  0  0  0  0  0  0
    3.7934   -0.8393    0.0000 C   0  0  0  0  0  0  0  0  0  0  0  0
    4.5079   -2.0768    0.0000 C   0  0  0  0  0  0  0  0  0  0  0  0
    3.0789    0.3982    0.0000 C   0  0  0  0  0  0  0  0  0  0  0  0
    3.0789   -0.4268    0.0000 C   0  0  0  0  0  0  0  0  0  0  0  0
    7.4219    3.7154    0.0000 C   0  0  0  0  0  0  0  0  0  0  0  0
    7.4219    2.8560    0.0000 C   0  0  0  0  0  0  0  0  0  0  0  0
    4.5079   -2.9018    0.0000 C   0  0  0  0  0  0  0  0  0  0  0  0
    3.7934   -1.6643    0.0000 C   0  0  0  0  0  0  0  0  0  0  0  0
    3.0789   -2.0768    0.0000 C   0  0  0  0  0  0  0  0  0  0  0  0
    3.7934   -3.3143    0.0000 C   0  0  0  0  0  0  0  0  0  0  0  0
    3.0789   -2.9018    0.0000 C   0  0  0  0  0  0  0  0  0  0  0  0
    5.2223   -4.1393    0.0000 C   0  0  0  0  0  0  0  0  0  0  0  0
    1.6500   -2.0768    0.0000 C   0  0  0  0  0  0  0  0  0  0  0  0
  1  2  2  0  0  0  0
  1  3  2  0  0  0  0
  1  7  1  0  0  0  0
  1 10  1  0  0  0  0
  4 27  1  0  0  0  0
  4 32  1  0  0  0  0
  5 19  2  0  0  0  0
  6 29  1  0  0  0  0
  6 33  1  0  0  0  0
  7 12  1  0  0  0  0
  8 11  1  0  0  0  0
  8 26  2  0  0  0  0
  9 19  1  0  0  0  0
  9 22  1  0  0  0  0
 10 11  2  0  0  0  0
 10 15  1  0  0  0  0
 11 13  1  0  0  0  0
 12 14  2  0  0  0  0
 12 18  1  0  0  0  0
 13 16  2  0  0  0  0
 13 20  1  0  0  0  0
 14 19  1  0  0  0  0
 14 21  1  0  0  0  0
 15 17  2  0  0  0  0
 16 17  1  0  0  0  0
 18 23  2  0  0  0  0
 20 25  2  0  0  0  0
 21 24  2  0  0  0  0
 22 27  2  0  0  0  0
 22 28  1  0  0  0  0
 23 24  1  0  0  0  0
 25 26  1  0  0  0  0
 27 30  1  0  0  0  0
 28 29  2  0  0  0  0
 29 31  1  0  0  0  0
 30 31  2  0  0  0  0
M  END
> <From>
www.bindingDB.org

> <BindingDB Reactant_set_id>
108202

> <Ligand InChI>
InChI=1S/C24H21N3O5S/c1-31-17-12-13-21(32-2)20(15-17)26-24(28)18-9-3-4-10-19(18)27-33(29,30)22-11-5-7-16-8-6-14-25-23(16)22/h3-15,27H,1-2H3,(H,26,28)

> <Ligand InChI Key>
QQHKDSALXVZYJY-UHFFFAOYSA-N

> <BindingDB MonomerID>
43836

> <BindingDB Ligand Name>
Glucosamine derivative, 9::MLS000580208::N-(2,5-dimethoxyphenyl)-2-(8-quinolinylsulfonylamino)benzamide::N-(2,5-dimethoxyphenyl)-2-(8-quinolylsulfonylamino)benzamide::N-(2,5-dimethoxyphenyl)-2-(quinolin-8-ylsulfonylamino)benzamide::N-(2,5-dimethoxyphenyl)-2-[(8-quinolinylsulfonyl)amino]benzamide::SMR000199740::cid_1295005

> <Target Name>
DNA repair protein RAD51 homolog 1

> <Target Source Organism According to Curator or DataSource>
Homo sapiens

> <Ki (nM)>


> <IC50 (nM)>
 42500

> <Kd (nM)>


> <EC50 (nM)>


> <kon (M-1-s-1)>


> <koff (s-1)>


> <pH>


> <Temp C>


> <Curation/DataSource>
PubChem

> <Article DOI>


> <BindingDB Entry DOI>
10.7270/Q2BV7F1T

> <PMID>


> <PubChem AID>
aid1435

> <Patent Number>


> <Authors>
PubChem, PC

> <Date of publication>
11/21/2008

> <Date in BindingDB>
6/8/2011

> <Institution>
PCMD

> <Link to Ligand in BindingDB>
http://www.bindingdb.org/bind/chemsearch/marvin/MolStructure.jsp?monomerid=43836

> <Link to Ligand-Target Pair in BindingDB>
http://www.bindingdb.org/jsp/dbsearch/PrimarySearch_ki.jsp?energyterm=kJ/mole&tag=pol&polymerid=4676&target=DNA+repair+protein+RAD51+homolog+1&column=ki&startPg=0&Increment=50&submit=Search

> <Link to Ligand-Target Pair in BindingDB>
http://www.bindingdb.org/jsp/dbsearch/PrimarySearch_ki.jsp?energyterm=kJ/mole&tag=r21&monomerid=43836&enzyme=DNA+repair+protein+RAD51+homolog+1&column=ki&startPg=0&Increment=50&submit=Search

> <Ligand HET ID in PDB>


> <PDB ID(s) for Ligand-Target Complex>


> <PubChem CID of Ligand>
1295005

> <PubChem SID of Ligand>
123080194

> <ChEBI ID of Ligand>


> <ChEMBL ID of Ligand>


> <DrugBank ID of Ligand>


> <IUPHAR_GRAC ID of Ligand>


> <KEGG ID of Ligand>


> <ZINC ID of Ligand>
ZINC01117667

> <Number of Protein Chains in Target (bigger than 1 implies a multichain complex)>
1

> <BindingDB Target Chain Sequence>
MAMQMQLEANADTSVEEESFGPQPISRLEQCGINANDVKKLEEAGFHTVEAVAYAPKKELINIKGISEAKADKILAEAAKLVPMGFTTATEFHQRRSEIIQITTGSKELDKLLQGGIETGSITEMFGEFRTGKTQICHTLAVTCQLPIDRGGGEGKAMYIDTEGTFRPERLLAVAERYGLSGSDVLDNVAYARAFNTDHQTQLLYQASAMMVESRYALLIVDSATALYRTDYSGRGELSARQMHLARFLRMLLRLADEFGVAVVITNQVVAQVDGAAMFAADPKKPIGGNIIAHASTTRLYLRKGRGETRICKIYDSPCLPEAEAMFAINADGVGDAKD

> <PDB ID(s) of Target Chain>
1N0W,5JZC,5NP7,5NWL,8BQ2,8BR2,8BSC

> <UniProt (SwissProt) Recommended Name of Target Chain>
DNA repair protein RAD51 homolog 1

> <UniProt (SwissProt) Entry Name of Target Chain>
RAD51_HUMAN

> <UniProt (SwissProt) Primary ID of Target Chain>
Q06609

> <UniProt (SwissProt) Secondary ID(s) of Target Chain>
B0FXP0 B2R8T6 Q6FHX9 Q6ZNA8 Q9BV60

> <UniProt (SwissProt) Alternative ID(s) of Target Chain>


> <UniProt (TrEMBL) Submitted Name of Target Chain>


> <UniProt (TrEMBL) Entry Name of Target Chain>


> <UniProt (TrEMBL) Primary ID of Target Chain>


> <UniProt (TrEMBL) Secondary ID(s) of Target Chain>


> <UniProt (TrEMBL) Alternative ID(s) of Target Chain>


$$$$
5320418
  Mrv0541 11251415302D          

 28 31  0  0  1  0            999 V2000
    5.5417    0.1377    0.0000 O   0  0  0  0  0  0  0  0  0  0  0  0
    5.2809   -2.3143    0.0000 O   0  0  0  0  0  0  0  0  0  0  0  0
    3.9287    0.9144    0.0000 O   0  0  0  0  0  0  0  0  0  0  0  0
    6.3172   -1.3078    0.0000 O   0  0  0  0  0  0  0  0  0  0  0  0
    2.8089   -1.5935    0.0000 O   0  0  0  0  0  0  0  0  0  0  0  0
    2.0360   -0.4064    0.0000 O   0  0  0  0  0  0  0  0  0  0  0  0
    3.9746   -2.9316    0.0000 O   0  0  0  0  0  0  0  0  0  0  0  0
    4.0798    2.2551    0.0000 O   0  0  0  0  0  0  0  0  0  0  0  0
    7.6389    1.9113    0.0000 O   0  0  0  0  0  0  0  0  0  0  0  0
    6.7313   -0.3414    0.0000 O   0  0  0  0  0  0  0  0  0  0  0  0
    4.8986   -1.0345    0.0000 C   0  0  0  0  0  0  0  0  0  0  0  0
    4.8239   -0.2080    0.0000 C   0  0  0  0  0  0  0  0  0  0  0  0
    4.2165   -1.5072    0.0000 C   0  0  0  0  0  0  0  0  0  0  0  0
    5.5538   -1.5358    0.0000 C   0  0  0  0  0  0  0  0  0  0  0  0
    4.1060    0.1377    0.0000 C   0  0  0  0  0  0  0  0  0  0  0  0
    3.4132   -0.3192    0.0000 C   0  0  0  0  0  0  0  0  0  0  0  0
    3.4689   -1.1472    0.0000 C   0  0  0  0  0  0  0  0  0  0  0  0
    5.7190    0.9144    0.0000 C   0  0  0  0  0  0  0  0  0  0  0  0
    4.4560   -2.2967    0.0000 C   0  0  0  0  0  0  0  0  0  0  0  0
    5.2222    1.5374    0.0000 C   0  0  0  0  0  0  0  0  0  0  0  0
    2.6995    0.0348    0.0000 C   0  0  0  0  0  0  0  0  0  0  0  0
    5.5134    2.3145    0.0000 C   0  0  0  0  0  0  0  0  0  0  0  0
    6.5414    1.0255    0.0000 C   0  0  0  0  0  0  0  0  0  0  0  0
    4.4255    1.5374    0.0000 C   0  0  0  0  0  0  0  0  0  0  0  0
    6.8506    1.7957    0.0000 C   0  0  0  0  0  0  0  0  0  0  0  0
    6.3331    2.4444    0.0000 C   0  0  0  0  0  0  0  0  0  0  0  0
    5.0096    2.9316    0.0000 C   0  0  0  0  0  0  0  0  0  0  0  0
    7.0309    0.3968    0.0000 C   0  0  0  0  0  0  0  0  0  0  0  0
  1 12  1  0  0  0  0
  1 18  1  0  0  0  0
  2 14  1  0  0  0  0
  2 19  1  0  0  0  0
  3 15  1  0  0  0  0
  3 24  1  0  0  0  0
  4 14  1  0  0  0  0
  5 17  1  0  0  0  0
  6 21  1  0  0  0  0
  7 19  2  0  0  0  0
  8 24  2  0  0  0  0
  9 25  1  0  0  0  0
 10 28  2  0  0  0  0
 11 12  2  0  0  0  0
 11 13  1  0  0  0  0
 11 14  1  0  0  0  0
 12 15  1  0  0  0  0
 13 17  2  0  0  0  0
 13 19  1  0  0  0  0
 15 16  2  0  0  0  0
 16 17  1  0  0  0  0
 16 21  1  0  0  0  0
 18 20  2  0  0  0  0
 18 23  1  0  0  0  0
 20 22  1  0  0  0  0
 20 24  1  0  0  0  0
 22 26  2  0  0  0  0
 22 27  1  0  0  0  0
 23 25  2  0  0  0  0
 23 28  1  0  0  0  0
 25 26  1  0  0  0  0
M  END
> <From>
www.bindingDB.org

> <BindingDB Reactant_set_id>
108203

> <Ligand InChI>
InChI=1S/C18H12O10/c1-5-2-8(21)6(3-19)13-9(5)16(23)27-14-7(4-20)12(22)10-11(15(14)26-13)18(25)28-17(10)24/h2-3,18,20-22,25H,4H2,1H3

> <Ligand InChI Key>
QQTKVXCQLZIJPP-UHFFFAOYSA-N

> <BindingDB MonomerID>
29673

> <BindingDB Ligand Name>
1,4,10-Trihydroxy-5-hydroxymethyl-8-methyl-3,7-dioxo-1,3-dihydro-7H-benzo[e]furo[3'''',4'''':3,4]benzo[b][1,4]dioxepine-11-carbaldehyde::CHEMBL172439::NSC-87509::Salazinic acid, 2::cid_5320418

> <Target Name>
DNA repair protein RAD51 homolog 1

> <Target Source Organism According to Curator or DataSource>
Homo sapiens

> <Ki (nM)>


> <IC50 (nM)>
 8017

> <Kd (nM)>


> <EC50 (nM)>


> <kon (M-1-s-1)>


> <koff (s-1)>


> <pH>


> <Temp C>


> <Curation/DataSource>
PubChem

> <Article DOI>


> <BindingDB Entry DOI>
10.7270/Q2BV7F1T

> <PMID>


> <PubChem AID>
aid1435

> <Patent Number>


> <Authors>
PubChem, PC

> <Date of publication>
11/21/2008

> <Date in BindingDB>
6/8/2011

> <Institution>
PCMD

> <Link to Ligand in BindingDB>
http://www.bindingdb.org/bind/chemsearch/marvin/MolStructure.jsp?monomerid=29673

> <Link to Ligand-Target Pair in BindingDB>
http://www.bindingdb.org/jsp/dbsearch/PrimarySearch_ki.jsp?energyterm=kJ/mole&tag=pol&polymerid=4676&target=DNA+repair+protein+RAD51+homolog+1&column=ki&startPg=0&Increment=50&submit=Search

> <Link to Ligand-Target Pair in BindingDB>
http://www.bindingdb.org/jsp/dbsearch/PrimarySearch_ki.jsp?energyterm=kJ/mole&tag=r21&monomerid=29673&enzyme=DNA+repair+protein+RAD51+homolog+1&column=ki&startPg=0&Increment=50&submit=Search

> <Ligand HET ID in PDB>


> <PDB ID(s) for Ligand-Target Complex>


> <PubChem CID of Ligand>
5320418

> <PubChem SID of Ligand>
252614882

> <ChEBI ID of Ligand>


> <ChEMBL ID of Ligand>
CHEMBL172439

> <DrugBank ID of Ligand>


> <IUPHAR_GRAC ID of Ligand>


> <KEGG ID of Ligand>


> <ZINC ID of Ligand>
ZINC18028709

> <Number of Protein Chains in Target (bigger than 1 implies a multichain complex)>
1

> <BindingDB Target Chain Sequence>
MAMQMQLEANADTSVEEESFGPQPISRLEQCGINANDVKKLEEAGFHTVEAVAYAPKKELINIKGISEAKADKILAEAAKLVPMGFTTATEFHQRRSEIIQITTGSKELDKLLQGGIETGSITEMFGEFRTGKTQICHTLAVTCQLPIDRGGGEGKAMYIDTEGTFRPERLLAVAERYGLSGSDVLDNVAYARAFNTDHQTQLLYQASAMMVESRYALLIVDSATALYRTDYSGRGELSARQMHLARFLRMLLRLADEFGVAVVITNQVVAQVDGAAMFAADPKKPIGGNIIAHASTTRLYLRKGRGETRICKIYDSPCLPEAEAMFAINADGVGDAKD

> <PDB ID(s) of Target Chain>
1N0W,5JZC,5NP7,5NWL,8BQ2,8BR2,8BSC

> <UniProt (SwissProt) Recommended Name of Target Chain>
DNA repair protein RAD51 homolog 1

> <UniProt (SwissProt) Entry Name of Target Chain>
RAD51_HUMAN

> <UniProt (SwissProt) Primary ID of Target Chain>
Q06609

> <UniProt (SwissProt) Secondary ID(s) of Target Chain>
B0FXP0 B2R8T6 Q6FHX9 Q6ZNA8 Q9BV60

> <UniProt (SwissProt) Alternative ID(s) of Target Chain>


> <UniProt (TrEMBL) Submitted Name of Target Chain>


> <UniProt (TrEMBL) Entry Name of Target Chain>


> <UniProt (TrEMBL) Primary ID of Target Chain>


> <UniProt (TrEMBL) Secondary ID(s) of Target Chain>


> <UniProt (TrEMBL) Alternative ID(s) of Target Chain>


$$$$

  Mrv0541 11231401252D          

 28 31  0  0  0  0            999 V2000
    5.9200   -5.7649    0.0000 C   0  0  0  0  0  0  0  0  0  0  0  0
    5.1211   -5.9718    0.0000 C   0  0  0  0  0  0  0  0  0  0  0  0
    4.5406   -5.3855    0.0000 C   0  0  0  0  0  0  0  0  0  0  0  0
    6.3626   -6.4546    0.0000 C   0  0  0  0  0  0  0  0  0  0  0  0
    3.0578   -5.3280    0.0000 C   0  0  0  0  0  0  0  0  0  0  0  0
    4.7475   -4.6096    0.0000 C   0  0  0  0  0  0  0  0  0  0  0  0
    2.9026   -4.5061    0.0000 C   0  0  0  0  0  0  0  0  0  0  0  0
    3.4371   -3.9199    0.0000 C   0  0  0  0  0  0  0  0  0  0  0  0
    4.2647   -3.9486    0.0000 O   0  0  0  0  0  0  0  0  0  0  0  0
    6.1270   -4.9717    0.0000 C   0  0  0  0  0  0  0  0  0  0  0  0
    3.7820   -5.7131    0.0000 O   0  0  0  0  0  0  0  0  0  0  0  0
    5.0752   -6.7994    0.0000 C   0  0  0  0  0  0  0  0  0  0  0  0
    5.8338   -7.0926    0.0000 O   0  0  0  0  0  0  0  0  0  0  0  0
    5.5407   -4.3854    0.0000 C   0  0  0  0  0  0  0  0  0  0  0  0
    2.4312   -5.8625    0.0000 C   0  0  0  0  0  0  0  0  0  0  0  0
    2.1266   -4.2303    0.0000 C   0  0  0  0  0  0  0  0  0  0  0  0
    1.6611   -5.5866    0.0000 C   0  0  0  0  0  0  0  0  0  0  0  0
    1.5001   -4.7648    0.0000 C   0  0  0  0  0  0  0  0  0  0  0  0
    7.1902   -6.5063    0.0000 O   0  0  0  0  0  0  0  0  0  0  0  0
    3.0864   -3.1440    0.0000 O   0  0  0  0  0  0  0  0  0  0  0  0
    2.5692   -6.6902    0.0000 C   0  0  0  0  0  0  0  0  0  0  0  0
    6.9316   -4.7475    0.0000 O   0  0  0  0  0  0  0  0  0  0  0  0
    4.3854   -7.2592    0.0000 O   0  0  0  0  0  0  0  0  0  0  0  0
    3.3336   -6.9833    0.0000 O   0  0  0  0  0  0  0  0  0  0  0  0
    1.0346   -6.1270    0.0000 O   0  0  0  0  0  0  0  0  0  0  0  0
    5.7476   -3.5750    0.0000 C   0  0  0  0  0  0  0  0  0  0  0  0
    1.9829   -3.4141    0.0000 C   0  0  0  0  0  0  0  0  0  0  0  0
    1.1955   -6.9374    0.0000 C   0  0  0  0  0  0  0  0  0  0  0  0
  2  1  2  0  0  0  0
  3  2  1  0  0  0  0
  4  1  1  0  0  0  0
  5 11  1  0  0  0  0
  6 14  1  0  0  0  0
  7  5  2  0  0  0  0
  8  9  1  0  0  0  0
  9  6  1  0  0  0  0
 10  1  1  0  0  0  0
 11  3  1  0  0  0  0
 12  2  1  0  0  0  0
 13  4  1  0  0  0  0
 14 10  2  0  0  0  0
 15  5  1  0  0  0  0
 16  7  1  0  0  0  0
 17 15  2  0  0  0  0
 18 17  1  0  0  0  0
 19  4  2  0  0  0  0
 20  8  2  0  0  0  0
 21 15  1  0  0  0  0
 22 10  1  0  0  0  0
 23 12  1  0  0  0  0
 24 21  2  0  0  0  0
 25 17  1  0  0  0  0
 26 14  1  0  0  0  0
 27 16  1  0  0  0  0
 28 25  1  0  0  0  0
 12 13  1  0  0  0  0
  6  3  2  0  0  0  0
  7  8  1  0  0  0  0
 16 18  2  0  0  0  0
M  END
> <From>
www.bindingDB.org

> <BindingDB Reactant_set_id>
108204

> <Ligand InChI>
InChI=1S/C19H14O9/c1-6-4-9(25-3)8(5-20)15-10(6)17(22)27-14-7(2)13(21)11-12(16(14)26-15)19(24)28-18(11)23/h4-5,19,21,24H,1-3H3

> <Ligand InChI Key>
SKCUFZLDTAYNBZ-UHFFFAOYSA-N

> <BindingDB MonomerID>
50056922

> <BindingDB Ligand Name>
1,4-Dihydroxy-10-methoxy-5,8-dimethyl-3,7-dioxo-1,3-dihydro-7H-benzo[e]furo[3',4':3,4]benzo[b][1,4]dioxepine-11-carbaldehyde::CHEMBL173530::NSC-87511::Stictic acid::Stictic acid (StA), 1::cid_73677

> <Target Name>
DNA repair protein RAD51 homolog 1

> <Target Source Organism According to Curator or DataSource>
Homo sapiens

> <Ki (nM)>


> <IC50 (nM)>
 8736

> <Kd (nM)>


> <EC50 (nM)>


> <kon (M-1-s-1)>


> <koff (s-1)>


> <pH>


> <Temp C>


> <Curation/DataSource>
PubChem

> <Article DOI>


> <BindingDB Entry DOI>
10.7270/Q2BV7F1T

> <PMID>


> <PubChem AID>
aid1435

> <Patent Number>


> <Authors>
PubChem, PC

> <Date of publication>
11/21/2008

> <Date in BindingDB>
6/8/2011

> <Institution>
PCMD

> <Link to Ligand in BindingDB>
http://www.bindingdb.org/bind/chemsearch/marvin/MolStructure.jsp?monomerid=50056922

> <Link to Ligand-Target Pair in BindingDB>
http://www.bindingdb.org/jsp/dbsearch/PrimarySearch_ki.jsp?energyterm=kJ/mole&tag=pol&polymerid=4676&target=DNA+repair+protein+RAD51+homolog+1&column=ki&startPg=0&Increment=50&submit=Search

> <Link to Ligand-Target Pair in BindingDB>
http://www.bindingdb.org/jsp/dbsearch/PrimarySearch_ki.jsp?energyterm=kJ/mole&tag=r21&monomerid=50056922&enzyme=DNA+repair+protein+RAD51+homolog+1&column=ki&startPg=0&Increment=50&submit=Search

> <Ligand HET ID in PDB>


> <PDB ID(s) for Ligand-Target Complex>


> <PubChem CID of Ligand>
73677

> <PubChem SID of Ligand>
103953052

> <ChEBI ID of Ligand>


> <ChEMBL ID of Ligand>
CHEMBL173530

> <DrugBank ID of Ligand>


> <IUPHAR_GRAC ID of Ligand>


> <KEGG ID of Ligand>


> <ZINC ID of Ligand>
ZINC02004083

> <Number of Protein Chains in Target (bigger than 1 implies a multichain complex)>
1

> <BindingDB Target Chain Sequence>
MAMQMQLEANADTSVEEESFGPQPISRLEQCGINANDVKKLEEAGFHTVEAVAYAPKKELINIKGISEAKADKILAEAAKLVPMGFTTATEFHQRRSEIIQITTGSKELDKLLQGGIETGSITEMFGEFRTGKTQICHTLAVTCQLPIDRGGGEGKAMYIDTEGTFRPERLLAVAERYGLSGSDVLDNVAYARAFNTDHQTQLLYQASAMMVESRYALLIVDSATALYRTDYSGRGELSARQMHLARFLRMLLRLADEFGVAVVITNQVVAQVDGAAMFAADPKKPIGGNIIAHASTTRLYLRKGRGETRICKIYDSPCLPEAEAMFAINADGVGDAKD

> <PDB ID(s) of Target Chain>
1N0W,5JZC,5NP7,5NWL,8BQ2,8BR2,8BSC

> <UniProt (SwissProt) Recommended Name of Target Chain>
DNA repair protein RAD51 homolog 1

> <UniProt (SwissProt) Entry Name of Target Chain>
RAD51_HUMAN

> <UniProt (SwissProt) Primary ID of Target Chain>
Q06609

> <UniProt (SwissProt) Secondary ID(s) of Target Chain>
B0FXP0 B2R8T6 Q6FHX9 Q6ZNA8 Q9BV60

> <UniProt (SwissProt) Alternative ID(s) of Target Chain>


> <UniProt (TrEMBL) Submitted Name of Target Chain>


> <UniProt (TrEMBL) Entry Name of Target Chain>


> <UniProt (TrEMBL) Primary ID of Target Chain>


> <UniProt (TrEMBL) Secondary ID(s) of Target Chain>


> <UniProt (TrEMBL) Alternative ID(s) of Target Chain>


$$$$
5388496
  -OEChem-09261414122D

 78 85  0     1  0  0  0  0  0999 V2000
    6.8264   -3.1714    0.0000 O   0  0  0  0  0  0  0  0  0  0  0  0
    9.2254   -1.7556    0.0000 O   0  0  0  0  0  0  0  0  0  0  0  0
    9.8083   -2.9835    0.0000 O   0  0  0  0  0  0  0  0  0  0  0  0
    8.9204   -4.7453    0.0000 O   0  0  0  0  0  0  0  0  0  0  0  0
    6.9523   -4.8815    0.0000 O   0  0  0  0  0  0  0  0  0  0  0  0
    5.4251   -1.3037    0.0000 O   0  0  0  0  0  0  0  0  0  0  0  0
    8.2209    3.9978    0.0000 O   0  0  0  0  0  0  0  0  0  0  0  0
    7.3390    0.4285    0.0000 O   0  0  0  0  0  0  0  0  0  0  0  0
   10.7851   -1.5261    0.0000 O   0  0  0  0  0  0  0  0  0  0  0  0
   10.8356    0.5285    0.0000 O   0  0  0  0  0  0  0  0  0  0  0  0
    9.1461   -0.5060    0.0000 O   0  0  0  0  0  0  0  0  0  0  0  0
    4.7752    4.0275    0.0000 O   0  0  0  0  0  0  0  0  0  0  0  0
    6.5041    4.9947    0.0000 O   0  0  0  0  0  0  0  0  0  0  0  0
    3.9627   -0.7149    0.0000 O   0  0  0  0  0  0  0  0  0  0  0  0
   11.2127    2.4970    0.0000 O   0  0  0  0  0  0  0  0  0  0  0  0
    9.9530    3.9978    0.0000 O   0  0  0  0  0  0  0  0  0  0  0  0
    5.5689    0.4527    0.0000 O   0  0  0  0  0  0  0  0  0  0  0  0
    4.4905    3.2963    0.0000 O   0  0  0  0  0  0  0  0  0  0  0  0
   12.9068    1.4862    0.0000 O   0  0  0  0  0  0  0  0  0  0  0  0
   12.9028   -0.4867    0.0000 O   0  0  0  0  0  0  0  0  0  0  0  0
    2.6065    2.7110    0.0000 O   0  0  0  0  0  0  0  0  0  0  0  0
    2.1478    0.7922    0.0000 O   0  0  0  0  0  0  0  0  0  0  0  0
    8.2804   -2.2052    0.0000 C   0  0  3  0  0  0  0  0  0  0  0  0
    8.8095   -3.0342    0.0000 C   0  0  3  0  0  0  0  0  0  0  0  0
    7.2363   -2.2774    0.0000 C   0  0  3  0  0  0  0  0  0  0  0  0
    8.3669   -3.9124    0.0000 C   0  0  3  0  0  0  0  0  0  0  0  0
    7.3858   -3.9804    0.0000 C   0  0  3  0  0  0  0  0  0  0  0  0
    6.2384   -1.9624    0.0000 C   0  0  0  0  0  0  0  0  0  0  0  0
    8.2209    1.9978    0.0000 C   0  0  0  0  0  0  0  0  0  0  0  0
    7.3549    2.4978    0.0000 C   0  0  0  0  0  0  0  0  0  0  0  0
    9.9402   -0.9912    0.0000 C   0  0  0  0  0  0  0  0  0  0  0  0
    9.0870    2.4978    0.0000 C   0  0  0  0  0  0  0  0  0  0  0  0
    9.9464    2.0030    0.0000 C   0  0  0  0  0  0  0  0  0  0  0  0
    6.4449    1.9909    0.0000 C   0  0  0  0  0  0  0  0  0  0  0  0
   10.3255   -0.0182    0.0000 C   0  0  0  0  0  0  0  0  0  0  0  0
   10.3276    1.0284    0.0000 C   0  0  0  0  0  0  0  0  0  0  0  0
    5.6056    2.5191    0.0000 C   0  0  0  0  0  0  0  0  0  0  0  0
    8.2370    0.9562    0.0000 C   0  0  0  0  0  0  0  0  0  0  0  0
    7.3549    3.4978    0.0000 C   0  0  0  0  0  0  0  0  0  0  0  0
    5.0065    1.6611    0.0000 C   0  0  0  0  0  0  0  0  0  0  0  0
    9.9598    1.0114    0.0000 C   0  0  0  0  0  0  0  0  0  0  0  0
    4.7632    0.6432    0.0000 C   0  0  0  0  0  0  0  0  0  0  0  0
    4.9095   -0.3930    0.0000 C   0  0  0  0  0  0  0  0  0  0  0  0
    9.1141    0.4935    0.0000 C   0  0  0  0  0  0  0  0  0  0  0  0
    5.6312    3.5105    0.0000 C   0  0  0  0  0  0  0  0  0  0  0  0
    6.4967    3.9947    0.0000 C   0  0  0  0  0  0  0  0  0  0  0  0
    9.0870    3.4978    0.0000 C   0  0  0  0  0  0  0  0  0  0  0  0
    6.4369    0.9493    0.0000 C   0  0  0  0  0  0  0  0  0  0  0  0
   11.1922    1.4972    0.0000 C   0  0  0  0  0  0  0  0  0  0  0  0
   11.1880   -0.4906    0.0000 C   0  0  0  0  0  0  0  0  0  0  0  0
    4.2760    2.3196    0.0000 C   0  0  0  0  0  0  0  0  0  0  0  0
    3.8138    0.3862    0.0000 C   0  0  0  0  0  0  0  0  0  0  0  0
   12.0367    0.9933    0.0000 C   0  0  0  0  0  0  0  0  0  0  0  0
   12.0347    0.0098    0.0000 C   0  0  0  0  0  0  0  0  0  0  0  0
    3.3368    2.0278    0.0000 C   0  0  0  0  0  0  0  0  0  0  0  0
    3.1081    1.0712    0.0000 C   0  0  0  0  0  0  0  0  0  0  0  0
    8.8763   -2.3761    0.0000 H   0  0  0  0  0  0  0  0  0  0  0  0
    9.1479   -3.5537    0.0000 H   0  0  0  0  0  0  0  0  0  0  0  0
    6.6696   -2.5288    0.0000 H   0  0  0  0  0  0  0  0  0  0  0  0
    8.9858   -3.8753    0.0000 H   0  0  0  0  0  0  0  0  0  0  0  0
    7.7337   -4.4935    0.0000 H   0  0  0  0  0  0  0  0  0  0  0  0
    5.6917   -2.2549    0.0000 H   0  0  0  0  0  0  0  0  0  0  0  0
    6.5319   -1.4163    0.0000 H   0  0  0  0  0  0  0  0  0  0  0  0
   10.1451   -3.5041    0.0000 H   0  0  0  0  0  0  0  0  0  0  0  0
    8.6448   -5.3007    0.0000 H   0  0  0  0  0  0  0  0  0  0  0  0
    6.3341   -4.9281    0.0000 H   0  0  0  0  0  0  0  0  0  0  0  0
   11.1982   -1.1105    0.0000 H   0  0  0  0  0  0  0  0  0  0  0  0
    3.6586   -0.2140    0.0000 H   0  0  0  0  0  0  0  0  0  0  0  0
   11.3663    0.8490    0.0000 H   0  0  0  0  0  0  0  0  0  0  0  0
    8.6193   -0.8330    0.0000 H   0  0  0  0  0  0  0  0  0  0  0  0
    4.7874    4.6474    0.0000 H   0  0  0  0  0  0  0  0  0  0  0  0
    7.0433    5.3007    0.0000 H   0  0  0  0  0  0  0  0  0  0  0  0
   11.7558    2.7960    0.0000 H   0  0  0  0  0  0  0  0  0  0  0  0
    4.0326    3.7143    0.0000 H   0  0  0  0  0  0  0  0  0  0  0  0
   13.4412    1.1718    0.0000 H   0  0  0  0  0  0  0  0  0  0  0  0
   12.9053   -1.1067    0.0000 H   0  0  0  0  0  0  0  0  0  0  0  0
    2.0133    2.5306    0.0000 H   0  0  0  0  0  0  0  0  0  0  0  0
    2.0000    0.1901    0.0000 H   0  0  0  0  0  0  0  0  0  0  0  0
  1 25  1  0  0  0  0
  1 27  1  0  0  0  0
  2 23  1  0  0  0  0
  2 31  1  0  0  0  0
  3 24  1  0  0  0  0
  3 64  1  0  0  0  0
  4 26  1  0  0  0  0
  4 65  1  0  0  0  0
  5 27  1  0  0  0  0
  5 66  1  0  0  0  0
  6 28  1  0  0  0  0
  6 43  1  0  0  0  0
  7 39  1  0  0  0  0
  7 47  1  0  0  0  0
  8 38  1  0  0  0  0
  8 48  1  0  0  0  0
  9 31  2  0  0  0  0
 10 41  1  0  0  0  0
 10 69  1  0  0  0  0
 11 44  1  0  0  0  0
 11 70  1  0  0  0  0
 12 45  1  0  0  0  0
 12 71  1  0  0  0  0
 13 46  1  0  0  0  0
 13 72  1  0  0  0  0
 14 43  2  0  0  0  0
 15 49  1  0  0  0  0
 15 73  1  0  0  0  0
 16 47  2  0  0  0  0
 17 48  2  0  0  0  0
 18 51  1  0  0  0  0
 18 74  1  0  0  0  0
 19 53  1  0  0  0  0
 19 75  1  0  0  0  0
 20 54  1  0  0  0  0
 20 76  1  0  0  0  0
 21 55  1  0  0  0  0
 21 77  1  0  0  0  0
 22 56  1  0  0  0  0
 22 78  1  0  0  0  0
 23 24  1  0  0  0  0
 23 25  1  0  0  0  0
 23 57  1  0  0  0  0
 24 26  1  0  0  0  0
 24 58  1  0  0  0  0
 25 28  1  0  0  0  0
 25 59  1  0  0  0  0
 26 27  1  0  0  0  0
 26 60  1  0  0  0  0
 27 61  1  0  0  0  0
 28 62  1  0  0  0  0
 28 63  1  0  0  0  0
 29 30  1  0  0  0  0
 29 32  2  0  0  0  0
 29 38  1  0  0  0  0
 30 34  2  0  0  0  0
 30 39  1  0  0  0  0
 31 35  1  0  0  0  0
 32 33  1  0  0  0  0
 32 47  1  0  0  0  0
 33 36  1  0  0  0  0
 33 41  2  0  0  0  0
 34 37  1  0  0  0  0
 34 48  1  0  0  0  0
 35 36  1  0  0  0  0
 35 50  2  0  0  0  0
 36 49  2  0  0  0  0
 37 40  1  0  0  0  0
 37 45  2  0  0  0  0
 38 44  2  0  0  0  0
 39 46  2  0  0  0  0
 40 42  1  0  0  0  0
 40 51  2  0  0  0  0
 41 44  1  0  0  0  0
 42 43  1  0  0  0  0
 42 52  2  0  0  0  0
 45 46  1  0  0  0  0
 49 53  1  0  0  0  0
 50 54  1  0  0  0  0
 50 67  1  0  0  0  0
 51 55  1  0  0  0  0
 52 56  1  0  0  0  0
 52 68  1  0  0  0  0
 53 54  2  0  0  0  0
 55 56  2  0  0  0  0
M  END
> <From>
www.bindingDB.org

> <BindingDB Reactant_set_id>
108205

> <Ligand InChI>
InChI=1S/C34H22O22/c35-6-1-4-9(19(39)17(6)37)11-15-13-14-16(33(50)56-28(13)23(43)21(11)41)12(22(42)24(44)29(14)55-32(15)49)10-5(2-7(36)18(38)20(10)40)31(48)54-27-8(3-52-30(4)47)53-34(51)26(46)25(27)45/h1-2,8,25-27,34-46,51H,3H2

> <Ligand InChI Key>
IQHIEHIKNWLKFB-UHFFFAOYSA-N

> <BindingDB MonomerID>
33024

> <BindingDB Ligand Name>
MLS000697664::Punicalin::SMR000445568::cid_5388496

> <Target Name>
DNA repair protein RAD51 homolog 1

> <Target Source Organism According to Curator or DataSource>
Homo sapiens

> <Ki (nM)>


> <IC50 (nM)>
 176

> <Kd (nM)>


> <EC50 (nM)>


> <kon (M-1-s-1)>


> <koff (s-1)>


> <pH>


> <Temp C>


> <Curation/DataSource>
PubChem

> <Article DOI>


> <BindingDB Entry DOI>
10.7270/Q2BV7F1T

> <PMID>


> <PubChem AID>
aid1435

> <Patent Number>


> <Authors>
PubChem, PC

> <Date of publication>
11/21/2008

> <Date in BindingDB>
6/8/2011

> <Institution>
PCMD

> <Link to Ligand in BindingDB>
http://www.bindingdb.org/bind/chemsearch/marvin/MolStructure.jsp?monomerid=33024

> <Link to Ligand-Target Pair in BindingDB>
http://www.bindingdb.org/jsp/dbsearch/PrimarySearch_ki.jsp?energyterm=kJ/mole&tag=pol&polymerid=4676&target=DNA+repair+protein+RAD51+homolog+1&column=ki&startPg=0&Increment=50&submit=Search

> <Link to Ligand-Target Pair in BindingDB>
http://www.bindingdb.org/jsp/dbsearch/PrimarySearch_ki.jsp?energyterm=kJ/mole&tag=r21&monomerid=33024&enzyme=DNA+repair+protein+RAD51+homolog+1&column=ki&startPg=0&Increment=50&submit=Search

> <Ligand HET ID in PDB>


> <PDB ID(s) for Ligand-Target Complex>


> <PubChem CID of Ligand>
5388496

> <PubChem SID of Ligand>
242052868

> <ChEBI ID of Ligand>


> <ChEMBL ID of Ligand>


> <DrugBank ID of Ligand>


> <IUPHAR_GRAC ID of Ligand>


> <KEGG ID of Ligand>


> <ZINC ID of Ligand>
ZINC85813356

> <Number of Protein Chains in Target (bigger than 1 implies a multichain complex)>
1

> <BindingDB Target Chain Sequence>
MAMQMQLEANADTSVEEESFGPQPISRLEQCGINANDVKKLEEAGFHTVEAVAYAPKKELINIKGISEAKADKILAEAAKLVPMGFTTATEFHQRRSEIIQITTGSKELDKLLQGGIETGSITEMFGEFRTGKTQICHTLAVTCQLPIDRGGGEGKAMYIDTEGTFRPERLLAVAERYGLSGSDVLDNVAYARAFNTDHQTQLLYQASAMMVESRYALLIVDSATALYRTDYSGRGELSARQMHLARFLRMLLRLADEFGVAVVITNQVVAQVDGAAMFAADPKKPIGGNIIAHASTTRLYLRKGRGETRICKIYDSPCLPEAEAMFAINADGVGDAKD

> <PDB ID(s) of Target Chain>
1N0W,5JZC,5NP7,5NWL,8BQ2,8BR2,8BSC

> <UniProt (SwissProt) Recommended Name of Target Chain>
DNA repair protein RAD51 homolog 1

> <UniProt (SwissProt) Entry Name of Target Chain>
RAD51_HUMAN

> <UniProt (SwissProt) Primary ID of Target Chain>
Q06609

> <UniProt (SwissProt) Secondary ID(s) of Target Chain>
B0FXP0 B2R8T6 Q6FHX9 Q6ZNA8 Q9BV60

> <UniProt (SwissProt) Alternative ID(s) of Target Chain>


> <UniProt (TrEMBL) Submitted Name of Target Chain>


> <UniProt (TrEMBL) Entry Name of Target Chain>


> <UniProt (TrEMBL) Primary ID of Target Chain>


> <UniProt (TrEMBL) Secondary ID(s) of Target Chain>


> <UniProt (TrEMBL) Alternative ID(s) of Target Chain>


$$$$
16759682
  Mrv0541 11251415482D          

 26 27  0  0  1  0            999 V2000
    2.3645    0.2063    0.0000 O   0  0  0  0  0  0  0  0  0  0  0  0
    5.9370   -1.0313    0.0000 O   0  0  0  0  0  0  0  0  0  0  0  0
    3.0790    1.4438    0.0000 O   0  0  0  0  0  0  0  0  0  0  0  0
    5.2224   -3.0938    0.0000 O   0  0  0  0  0  0  0  0  0  0  0  0
    5.9370   -1.8563    0.0000 O   0  0  0  0  0  0  0  0  0  0  0  0
    4.5080   -1.0313    0.0000 N   0  0  0  0  0  0  0  0  0  0  0  0
    5.2224    0.2063    0.0000 N   0  0  0  0  0  0  0  0  0  0  0  0
    3.7935    0.2063    0.0000 C   0  0  2  0  0  0  0  0  0  0  0  0
    4.5080    0.6188    0.0000 C   0  0  2  0  0  0  0  0  0  0  0  0
    3.7935   -0.6188    0.0000 C   0  0  1  0  0  0  0  0  0  0  0  0
    4.5080    1.4438    0.0000 C   0  0  0  0  0  0  0  0  0  0  0  0
    5.2224   -0.6188    0.0000 C   0  0  0  0  0  0  0  0  0  0  0  0
    3.0790   -1.0313    0.0000 C   0  0  0  0  0  0  0  0  0  0  0  0
    3.0790    0.6188    0.0000 C   0  0  0  0  0  0  0  0  0  0  0  0
    5.2224    1.8563    0.0000 C   0  0  0  0  0  0  0  0  0  0  0  0
    4.5080   -1.8563    0.0000 C   0  0  0  0  0  0  0  0  0  0  0  0
    5.2224    2.6813    0.0000 C   0  0  0  0  0  0  0  0  0  0  0  0
    5.2224   -2.2688    0.0000 C   0  0  0  0  0  0  0  0  0  0  0  0
    4.5080    3.0938    0.0000 C   0  0  0  0  0  0  0  0  0  0  0  0
    5.9370    3.0938    0.0000 C   0  0  0  0  0  0  0  0  0  0  0  0
    1.6500    0.6188    0.0000 C   0  0  0  0  0  0  0  0  0  0  0  0
    4.5080    3.9188    0.0000 C   0  0  0  0  0  0  0  0  0  0  0  0
    5.9370    3.9188    0.0000 C   0  0  0  0  0  0  0  0  0  0  0  0
    5.2224    4.3313    0.0000 C   0  0  0  0  0  0  0  0  0  0  0  0
    5.9370   -3.5063    0.0000 C   0  0  0  0  0  0  0  0  0  0  0  0
    5.9370   -4.3313    0.0000 C   0  0  0  0  0  0  0  0  0  0  0  0
  1 14  1  0  0  0  0
  1 21  1  0  0  0  0
  2 12  2  0  0  0  0
  3 14  2  0  0  0  0
  4 18  1  0  0  0  0
  4 25  1  0  0  0  0
  5 18  2  0  0  0  0
 10  6  1  0  0  0  0
  6 12  1  0  0  0  0
  6 16  1  0  0  0  0
  9  7  1  0  0  0  0
  7 12  1  0  0  0  0
  8  9  1  0  0  0  0
  8 10  1  0  0  0  0
  8 14  1  6  0  0  0
  9 11  1  6  0  0  0
 10 13  1  6  0  0  0
 11 15  1  0  0  0  0
 15 17  1  0  0  0  0
 16 18  1  0  0  0  0
 17 19  2  0  0  0  0
 17 20  1  0  0  0  0
 19 22  1  0  0  0  0
 20 23  2  0  0  0  0
 22 24  2  0  0  0  0
 23 24  1  0  0  0  0
 25 26  1  0  0  0  0
M  END
> <From>
www.bindingDB.org

> <BindingDB Reactant_set_id>
108206

> <Ligand InChI>
InChI=1S/C19H26N2O5/c1-4-26-16(22)12-21-13(2)17(18(23)25-3)15(20-19(21)24)11-10-14-8-6-5-7-9-14/h5-9,13,15,17H,4,10-12H2,1-3H3,(H,20,24)/t13-,15+,17+/m1/s1

> <Ligand InChI Key>
MBRHOQNQMFRYCG-KMFMINBZSA-N

> <BindingDB MonomerID>
43837

> <BindingDB Ligand Name>
(4S,5R,6R)-1-(2-ethoxy-2-keto-ethyl)-2-keto-6-methyl-4-phenethyl-hexahydropyrimidine-5-carboxylic acid methyl ester::(4S,5R,6R)-1-(2-ethoxy-2-oxoethyl)-6-methyl-2-oxo-4-(2-phenylethyl)-1,3-diazinane-5-carboxylic acid methyl ester::CMLD004122::Glucosamine derivative, 10::MLS000438533::SMR000452888::cid_16759682::methyl (4S,5R,6R)-1-(2-ethoxy-2-oxidanylidene-ethyl)-6-methyl-2-oxidanylidene-4-(2-phenylethyl)-1,3-diazinane-5-carboxylate::methyl (4S,5R,6R)-1-(2-ethoxy-2-oxoethyl)-6-methyl-2-oxo-4-(2-phenylethyl)-1,3-diazinane-5-carboxylate

> <Target Name>
DNA repair protein RAD51 homolog 1

> <Target Source Organism According to Curator or DataSource>
Homo sapiens

> <Ki (nM)>


> <IC50 (nM)>
 42500

> <Kd (nM)>


> <EC50 (nM)>


> <kon (M-1-s-1)>


> <koff (s-1)>


> <pH>


> <Temp C>


> <Curation/DataSource>
PubChem

> <Article DOI>


> <BindingDB Entry DOI>
10.7270/Q2BV7F1T

> <PMID>


> <PubChem AID>
aid1435

> <Patent Number>


> <Authors>
PubChem, PC

> <Date of publication>
11/21/2008

> <Date in BindingDB>
6/8/2011

> <Institution>
PCMD

> <Link to Ligand in BindingDB>
http://www.bindingdb.org/bind/chemsearch/marvin/MolStructure.jsp?monomerid=43837

> <Link to Ligand-Target Pair in BindingDB>
http://www.bindingdb.org/jsp/dbsearch/PrimarySearch_ki.jsp?energyterm=kJ/mole&tag=pol&polymerid=4676&target=DNA+repair+protein+RAD51+homolog+1&column=ki&startPg=0&Increment=50&submit=Search

> <Link to Ligand-Target Pair in BindingDB>
http://www.bindingdb.org/jsp/dbsearch/PrimarySearch_ki.jsp?energyterm=kJ/mole&tag=r21&monomerid=43837&enzyme=DNA+repair+protein+RAD51+homolog+1&column=ki&startPg=0&Increment=50&submit=Search

> <Ligand HET ID in PDB>


> <PDB ID(s) for Ligand-Target Complex>


> <PubChem CID of Ligand>
16759682

> <PubChem SID of Ligand>
123080195

> <ChEBI ID of Ligand>


> <ChEMBL ID of Ligand>


> <DrugBank ID of Ligand>


> <IUPHAR_GRAC ID of Ligand>


> <KEGG ID of Ligand>


> <ZINC ID of Ligand>
ZINC13816647

> <Number of Protein Chains in Target (bigger than 1 implies a multichain complex)>
1

> <BindingDB Target Chain Sequence>
MAMQMQLEANADTSVEEESFGPQPISRLEQCGINANDVKKLEEAGFHTVEAVAYAPKKELINIKGISEAKADKILAEAAKLVPMGFTTATEFHQRRSEIIQITTGSKELDKLLQGGIETGSITEMFGEFRTGKTQICHTLAVTCQLPIDRGGGEGKAMYIDTEGTFRPERLLAVAERYGLSGSDVLDNVAYARAFNTDHQTQLLYQASAMMVESRYALLIVDSATALYRTDYSGRGELSARQMHLARFLRMLLRLADEFGVAVVITNQVVAQVDGAAMFAADPKKPIGGNIIAHASTTRLYLRKGRGETRICKIYDSPCLPEAEAMFAINADGVGDAKD

> <PDB ID(s) of Target Chain>
1N0W,5JZC,5NP7,5NWL,8BQ2,8BR2,8BSC

> <UniProt (SwissProt) Recommended Name of Target Chain>
DNA repair protein RAD51 homolog 1

> <UniProt (SwissProt) Entry Name of Target Chain>
RAD51_HUMAN

> <UniProt (SwissProt) Primary ID of Target Chain>
Q06609

> <UniProt (SwissProt) Secondary ID(s) of Target Chain>
B0FXP0 B2R8T6 Q6FHX9 Q6ZNA8 Q9BV60

> <UniProt (SwissProt) Alternative ID(s) of Target Chain>


> <UniProt (TrEMBL) Submitted Name of Target Chain>


> <UniProt (TrEMBL) Entry Name of Target Chain>


> <UniProt (TrEMBL) Primary ID of Target Chain>


> <UniProt (TrEMBL) Secondary ID(s) of Target Chain>


> <UniProt (TrEMBL) Alternative ID(s) of Target Chain>


$$$$
16759689
  Mrv0541 11251415482D          

 34 37  0  0  1  0            999 V2000
    6.9020    1.4702    0.0000 Br  0  0  0  0  0  0  0  0  0  0  0  0
    5.3626   -0.5924    0.0000 O   0  0  0  0  0  0  0  0  0  0  0  0
    6.9020   -1.8299    0.0000 O   0  0  0  0  0  0  0  0  0  0  0  0
    5.4731    0.6452    0.0000 O   0  0  0  0  0  0  0  0  0  0  0  0
   11.9531    1.9108    0.0000 O   0  0  0  0  0  0  0  0  0  0  0  0
    5.3626   -2.0214    0.0000 O   0  0  0  0  0  0  0  0  0  0  0  0
    2.4750   -2.7358    0.0000 O   0  0  0  0  0  0  0  0  0  0  0  0
    2.4750   -1.3069    0.0000 O   0  0  0  0  0  0  0  0  0  0  0  0
    9.1016   -0.6095    0.0000 N   0  0  0  0  0  0  0  0  0  0  0  0
    9.8145   -1.0248    0.0000 C   0  0  0  0  0  0  0  0  0  0  0  0
   10.2242   -1.7409    0.0000 C   0  0  0  0  0  0  0  0  0  0  0  0
   10.6394   -1.0280    0.0000 C   0  0  0  0  0  0  0  0  0  0  0  0
    9.1016    0.2498    0.0000 C   0  0  0  0  0  0  0  0  0  0  0  0
    8.3540   -1.0335    0.0000 C   0  0  0  0  0  0  0  0  0  0  0  0
    7.6165   -0.5924    0.0000 C   0  0  0  0  0  0  0  0  0  0  0  0
    7.6165    0.2327    0.0000 C   0  0  0  0  0  0  0  0  0  0  0  0
    8.3540    0.6737    0.0000 C   0  0  0  0  0  0  0  0  0  0  0  0
    9.8145    0.6650    0.0000 C   0  0  0  0  0  0  0  0  0  0  0  0
    6.1876   -0.5924    0.0000 C   0  0  0  0  0  0  0  0  0  0  0  0
    6.9020   -1.0049    0.0000 C   0  0  0  0  0  0  0  0  0  0  0  0
    6.9020    0.6452    0.0000 C   0  0  0  0  0  0  0  0  0  0  0  0
    6.1876    0.2327    0.0000 C   0  0  0  0  0  0  0  0  0  0  0  0
    5.7751   -1.3069    0.0000 C   0  0  0  0  0  0  0  0  0  0  0  0
    9.8112    1.4900    0.0000 C   0  0  0  0  0  0  0  0  0  0  0  0
   10.5305    0.2553    0.0000 C   0  0  0  0  0  0  0  0  0  0  0  0
   10.5241    1.9053    0.0000 C   0  0  0  0  0  0  0  0  0  0  0  0
   11.2434    0.6706    0.0000 C   0  0  0  0  0  0  0  0  0  0  0  0
   11.2402    1.4956    0.0000 C   0  0  0  0  0  0  0  0  0  0  0  0
    4.9501   -1.3069    0.0000 C   0  0  0  0  0  0  0  0  0  0  0  0
    4.1250   -1.3069    0.0000 C   0  0  0  0  0  0  0  0  0  0  0  0
    3.7125   -2.0214    0.0000 C   0  0  0  0  0  0  0  0  0  0  0  0
   11.9499    2.7358    0.0000 C   0  0  0  0  0  0  0  0  0  0  0  0
    2.8875   -2.0214    0.0000 C   0  0  0  0  0  0  0  0  0  0  0  0
    1.6500   -2.7358    0.0000 C   0  0  0  0  0  0  0  0  0  0  0  0
  1 21  1  0  0  0  0
  2 19  1  0  0  0  0
  2 29  1  0  0  0  0
  3 20  2  0  0  0  0
  4 22  2  0  0  0  0
  5 28  1  0  0  0  0
  5 32  1  0  0  0  0
  6 29  2  0  0  0  0
  7 33  1  0  0  0  0
  7 34  1  0  0  0  0
  8 33  2  0  0  0  0
  9 10  1  0  0  0  0
  9 13  1  0  0  0  0
  9 14  1  0  0  0  0
 10 11  1  0  0  0  0
 10 12  1  0  0  0  0
 11 12  1  0  0  0  0
 13 17  2  0  0  0  0
 13 18  1  0  0  0  0
 14 15  2  0  0  0  0
 15 16  1  0  0  0  0
 15 20  1  0  0  0  0
 16 17  1  0  0  0  0
 16 21  2  0  0  0  0
 18 24  2  0  0  0  0
 18 25  1  0  0  0  0
 19 20  1  0  0  0  0
 19 22  1  0  0  0  0
 19 23  1  0  0  0  0
 21 22  1  0  0  0  0
 24 26  1  0  0  0  0
 25 27  2  0  0  0  0
 26 28  2  0  0  0  0
 27 28  1  0  0  0  0
 29 30  1  0  0  0  0
 30 31  1  0  0  0  0
 31 33  1  0  0  0  0
M  END
> <From>
www.bindingDB.org

> <BindingDB Reactant_set_id>
108207

> <Ligand InChI>
InChI=1S/C25H24BrNO7/c1-25(34-21(29)11-10-20(28)33-3)23(30)18-13-27(15-6-7-15)19(12-17(18)22(26)24(25)31)14-4-8-16(32-2)9-5-14/h4-5,8-9,12-13,15H,6-7,10-11H2,1-3H3

> <Ligand InChI Key>
ZWILRIIIGUBNDA-UHFFFAOYSA-N

> <BindingDB MonomerID>
43838

> <BindingDB Ligand Name>
4-O-[5-bromo-2-cyclopropyl-3-(4-methoxyphenyl)-7-methyl-6,8-dioxoisoquinolin-7-yl] 1-O-methyl butanedioate::CMLD004038::Glucosamine derivative, 11::MLS000438679::O4-[5-bromanyl-2-cyclopropyl-3-(4-methoxyphenyl)-7-methyl-6,8-bis(oxidanylidene)isoquinolin-7-yl] O1-methyl butanedioate::SMR000452728::butanedioic acid O4-[5-bromo-2-cyclopropyl-3-(4-methoxyphenyl)-7-methyl-6,8-dioxo-7-isoquinolinyl] ester O1-methyl ester::cid_16759689::succinic acid O4-[5-bromo-2-cyclopropyl-6,8-diketo-3-(4-methoxyphenyl)-7-methyl-7-isoquinolyl] ester O1-methyl ester

> <Target Name>
DNA repair protein RAD51 homolog 1

> <Target Source Organism According to Curator or DataSource>
Homo sapiens

> <Ki (nM)>


> <IC50 (nM)>
 42500

> <Kd (nM)>


> <EC50 (nM)>


> <kon (M-1-s-1)>


> <koff (s-1)>


> <pH>


> <Temp C>


> <Curation/DataSource>
PubChem

> <Article DOI>


> <BindingDB Entry DOI>
10.7270/Q2BV7F1T

> <PMID>


> <PubChem AID>
aid1435

> <Patent Number>


> <Authors>
PubChem, PC

> <Date of publication>
11/21/2008

> <Date in BindingDB>
6/8/2011

> <Institution>
PCMD

> <Link to Ligand in BindingDB>
http://www.bindingdb.org/bind/chemsearch/marvin/MolStructure.jsp?monomerid=43838

> <Link to Ligand-Target Pair in BindingDB>
http://www.bindingdb.org/jsp/dbsearch/PrimarySearch_ki.jsp?energyterm=kJ/mole&tag=pol&polymerid=4676&target=DNA+repair+protein+RAD51+homolog+1&column=ki&startPg=0&Increment=50&submit=Search

> <Link to Ligand-Target Pair in BindingDB>
http://www.bindingdb.org/jsp/dbsearch/PrimarySearch_ki.jsp?energyterm=kJ/mole&tag=r21&monomerid=43838&enzyme=DNA+repair+protein+RAD51+homolog+1&column=ki&startPg=0&Increment=50&submit=Search

> <Ligand HET ID in PDB>


> <PDB ID(s) for Ligand-Target Complex>


> <PubChem CID of Ligand>
16759689

> <PubChem SID of Ligand>
123080196

> <ChEBI ID of Ligand>


> <ChEMBL ID of Ligand>


> <DrugBank ID of Ligand>


> <IUPHAR_GRAC ID of Ligand>


> <KEGG ID of Ligand>


> <ZINC ID of Ligand>
ZINC17654274

> <Number of Protein Chains in Target (bigger than 1 implies a multichain complex)>
1

> <BindingDB Target Chain Sequence>
MAMQMQLEANADTSVEEESFGPQPISRLEQCGINANDVKKLEEAGFHTVEAVAYAPKKELINIKGISEAKADKILAEAAKLVPMGFTTATEFHQRRSEIIQITTGSKELDKLLQGGIETGSITEMFGEFRTGKTQICHTLAVTCQLPIDRGGGEGKAMYIDTEGTFRPERLLAVAERYGLSGSDVLDNVAYARAFNTDHQTQLLYQASAMMVESRYALLIVDSATALYRTDYSGRGELSARQMHLARFLRMLLRLADEFGVAVVITNQVVAQVDGAAMFAADPKKPIGGNIIAHASTTRLYLRKGRGETRICKIYDSPCLPEAEAMFAINADGVGDAKD

> <PDB ID(s) of Target Chain>
1N0W,5JZC,5NP7,5NWL,8BQ2,8BR2,8BSC

> <UniProt (SwissProt) Recommended Name of Target Chain>
DNA repair protein RAD51 homolog 1

> <UniProt (SwissProt) Entry Name of Target Chain>
RAD51_HUMAN

> <UniProt (SwissProt) Primary ID of Target Chain>
Q06609

> <UniProt (SwissProt) Secondary ID(s) of Target Chain>
B0FXP0 B2R8T6 Q6FHX9 Q6ZNA8 Q9BV60

> <UniProt (SwissProt) Alternative ID(s) of Target Chain>


> <UniProt (TrEMBL) Submitted Name of Target Chain>


> <UniProt (TrEMBL) Entry Name of Target Chain>


> <UniProt (TrEMBL) Primary ID of Target Chain>


> <UniProt (TrEMBL) Secondary ID(s) of Target Chain>


> <UniProt (TrEMBL) Alternative ID(s) of Target Chain>


$$$$

  Mrv0541 11231401252D          

 26 28  0  0  0  0            999 V2000
    4.5449   -5.3905    0.0000 C   0  0  0  0  0  0  0  0  0  0  0  0
    3.0606   -5.3330    0.0000 C   0  0  0  0  0  0  0  0  0  0  0  0
    2.9053   -4.5103    0.0000 C   0  0  0  0  0  0  0  0  0  0  0  0
    3.4403   -3.9235    0.0000 C   0  0  0  0  0  0  0  0  0  0  0  0
    4.7520   -4.6139    0.0000 C   0  0  0  0  0  0  0  0  0  0  0  0
    5.1259   -5.9773    0.0000 C   0  0  0  0  0  0  0  0  0  0  0  0
    4.2687   -3.9523    0.0000 O   0  0  0  0  0  0  0  0  0  0  0  0
    3.7855   -5.7185    0.0000 O   0  0  0  0  0  0  0  0  0  0  0  0
    2.4335   -5.8680    0.0000 C   0  0  0  0  0  0  0  0  0  0  0  0
    5.5459   -4.3895    0.0000 C   0  0  0  0  0  0  0  0  0  0  0  0
    2.1286   -4.2342    0.0000 C   0  0  0  0  0  0  0  0  0  0  0  0
    5.9256   -5.7702    0.0000 C   0  0  0  0  0  0  0  0  0  0  0  0
    1.6626   -5.5919    0.0000 C   0  0  0  0  0  0  0  0  0  0  0  0
    4.9073   -6.7713    0.0000 C   0  0  0  0  0  0  0  0  0  0  0  0
    6.1327   -4.9763    0.0000 C   0  0  0  0  0  0  0  0  0  0  0  0
    1.5015   -4.7692    0.0000 C   0  0  0  0  0  0  0  0  0  0  0  0
    3.0893   -3.1469    0.0000 O   0  0  0  0  0  0  0  0  0  0  0  0
    2.5716   -6.6964    0.0000 C   0  0  0  0  0  0  0  0  0  0  0  0
    5.4941   -7.3695    0.0000 O   0  0  0  0  0  0  0  0  0  0  0  0
    3.3367   -6.9898    0.0000 O   0  0  0  0  0  0  0  0  0  0  0  0
    4.1076   -6.9956    0.0000 O   0  0  0  0  0  0  0  0  0  0  0  0
    1.0355   -6.1327    0.0000 O   0  0  0  0  0  0  0  0  0  0  0  0
    6.9380   -4.7520    0.0000 O   0  0  0  0  0  0  0  0  0  0  0  0
    5.7530   -3.5784    0.0000 C   0  0  0  0  0  0  0  0  0  0  0  0
    1.9848   -3.4172    0.0000 C   0  0  0  0  0  0  0  0  0  0  0  0
    7.5134   -5.3388    0.0000 C   0  0  0  0  0  0  0  0  0  0  0  0
  2  8  1  0  0  0  0
  3  2  2  0  0  0  0
  4  7  1  0  0  0  0
  5  1  2  0  0  0  0
  6  1  1  0  0  0  0
  7  5  1  0  0  0  0
  8  1  1  0  0  0  0
  9  2  1  0  0  0  0
 10  5  1  0  0  0  0
 11  3  1  0  0  0  0
 12  6  2  0  0  0  0
 13  9  2  0  0  0  0
 14  6  1  0  0  0  0
 15 12  1  0  0  0  0
 16 13  1  0  0  0  0
 17  4  2  0  0  0  0
 18  9  1  0  0  0  0
 19 14  2  0  0  0  0
 20 18  2  0  0  0  0
 21 14  1  0  0  0  0
 22 13  1  0  0  0  0
 23 15  1  0  0  0  0
 24 10  1  0  0  0  0
 25 11  1  0  0  0  0
 26 23  1  0  0  0  0
 15 10  2  0  0  0  0
  3  4  1  0  0  0  0
 11 16  2  0  0  0  0
M  END
> <From>
www.bindingDB.org

> <BindingDB Reactant_set_id>
108208

> <Ligand InChI>
InChI=1S/C18H14O8/c1-7-4-11(20)10(6-19)15-13(7)18(23)26-14-8(2)12(24-3)5-9(17(21)22)16(14)25-15/h4-6,20H,1-3H3,(H,21,22)

> <Ligand InChI Key>
FUCWJKJZOHOLEO-UHFFFAOYSA-N

> <BindingDB MonomerID>
50056939

> <BindingDB Ligand Name>
4-Formyl-3-hydroxy-8-methoxy-1,9-dimethyl-11-oxo-11H-dibenzo[b,e][1,4]dioxepine-6-carboxylic acid::CHEMBL176570::NSC-92186::Parellic acid, 3::cid_23725

> <Target Name>
DNA repair protein RAD51 homolog 1

> <Target Source Organism According to Curator or DataSource>
Homo sapiens

> <Ki (nM)>


> <IC50 (nM)>
 5452

> <Kd (nM)>


> <EC50 (nM)>


> <kon (M-1-s-1)>


> <koff (s-1)>


> <pH>


> <Temp C>


> <Curation/DataSource>
PubChem

> <Article DOI>


> <BindingDB Entry DOI>
10.7270/Q2BV7F1T

> <PMID>


> <PubChem AID>
aid1435

> <Patent Number>


> <Authors>
PubChem, PC

> <Date of publication>
11/21/2008

> <Date in BindingDB>
6/8/2011

> <Institution>
PCMD

> <Link to Ligand in BindingDB>
http://www.bindingdb.org/bind/chemsearch/marvin/MolStructure.jsp?monomerid=50056939

> <Link to Ligand-Target Pair in BindingDB>
http://www.bindingdb.org/jsp/dbsearch/PrimarySearch_ki.jsp?energyterm=kJ/mole&tag=pol&polymerid=4676&target=DNA+repair+protein+RAD51+homolog+1&column=ki&startPg=0&Increment=50&submit=Search

> <Link to Ligand-Target Pair in BindingDB>
http://www.bindingdb.org/jsp/dbsearch/PrimarySearch_ki.jsp?energyterm=kJ/mole&tag=r21&monomerid=50056939&enzyme=DNA+repair+protein+RAD51+homolog+1&column=ki&startPg=0&Increment=50&submit=Search

> <Ligand HET ID in PDB>
PJA

> <PDB ID(s) for Ligand-Target Complex>
4EHM

> <PubChem CID of Ligand>
23725

> <PubChem SID of Ligand>
103953069

> <ChEBI ID of Ligand>


> <ChEMBL ID of Ligand>
CHEMBL176570

> <DrugBank ID of Ligand>


> <IUPHAR_GRAC ID of Ligand>


> <KEGG ID of Ligand>


> <ZINC ID of Ligand>
ZINC01598047

> <Number of Protein Chains in Target (bigger than 1 implies a multichain complex)>
1

> <BindingDB Target Chain Sequence>
MAMQMQLEANADTSVEEESFGPQPISRLEQCGINANDVKKLEEAGFHTVEAVAYAPKKELINIKGISEAKADKILAEAAKLVPMGFTTATEFHQRRSEIIQITTGSKELDKLLQGGIETGSITEMFGEFRTGKTQICHTLAVTCQLPIDRGGGEGKAMYIDTEGTFRPERLLAVAERYGLSGSDVLDNVAYARAFNTDHQTQLLYQASAMMVESRYALLIVDSATALYRTDYSGRGELSARQMHLARFLRMLLRLADEFGVAVVITNQVVAQVDGAAMFAADPKKPIGGNIIAHASTTRLYLRKGRGETRICKIYDSPCLPEAEAMFAINADGVGDAKD

> <PDB ID(s) of Target Chain>
1N0W,5JZC,5NP7,5NWL,8BQ2,8BR2,8BSC

> <UniProt (SwissProt) Recommended Name of Target Chain>
DNA repair protein RAD51 homolog 1

> <UniProt (SwissProt) Entry Name of Target Chain>
RAD51_HUMAN

> <UniProt (SwissProt) Primary ID of Target Chain>
Q06609

> <UniProt (SwissProt) Secondary ID(s) of Target Chain>
B0FXP0 B2R8T6 Q6FHX9 Q6ZNA8 Q9BV60

> <UniProt (SwissProt) Alternative ID(s) of Target Chain>


> <UniProt (TrEMBL) Submitted Name of Target Chain>


> <UniProt (TrEMBL) Entry Name of Target Chain>


> <UniProt (TrEMBL) Primary ID of Target Chain>


> <UniProt (TrEMBL) Secondary ID(s) of Target Chain>


> <UniProt (TrEMBL) Alternative ID(s) of Target Chain>


$$$$
443939
  Mrv0541 11251415312D          

 39 43  0  0  1  0            999 V2000
    3.3035    5.6870    0.0000 O   0  0  0  0  0  0  0  0  0  0  0  0
    1.8747    5.7035    0.0000 O   0  0  0  0  0  0  0  0  0  0  0  0
    2.1368    2.8629    0.0000 O   0  0  0  0  0  0  0  0  0  0  0  0
    0.4650    7.3699    0.0000 O   0  0  0  0  0  0  0  0  0  0  0  0
    4.7460    5.6585    0.0000 O   0  0  0  0  0  0  0  0  0  0  0  0
    4.7460    2.3585    0.0000 O   0  0  0  0  0  0  0  0  0  0  0  0
    1.3063    4.2885    0.0000 O   0  0  0  0  0  0  0  0  0  0  0  0
    0.4868    2.8564    0.0000 O   0  0  0  0  0  0  0  0  0  0  0  0
    6.1884    5.6870    0.0000 O   0  0  0  0  0  0  0  0  0  0  0  0
    6.1884    2.3300    0.0000 O   0  0  0  0  0  0  0  0  0  0  0  0
    7.7040    5.7226    0.0000 O   0  0  0  0  0  0  0  0  0  0  0  0
    1.9033    8.1783    0.0000 N   0  0  0  0  0  0  0  0  0  0  0  0
    3.2940    4.8621    0.0000 C   0  0  1  0  0  0  0  0  0  0  0  0
    2.5465    3.5789    0.0000 C   0  0  2  0  0  0  0  0  0  0  0  0
    2.5465    4.4382    0.0000 C   0  0  0  0  0  0  0  0  0  0  0  0
    3.2940    3.1549    0.0000 C   0  0  0  0  0  0  0  0  0  0  0  0
    4.0315    4.4210    0.0000 C   0  0  0  0  0  0  0  0  0  0  0  0
    4.0315    3.5960    0.0000 C   0  0  0  0  0  0  0  0  0  0  0  0
    2.5939    6.1078    0.0000 C   0  0  2  0  0  0  0  0  0  0  0  0
    2.6034    6.9327    0.0000 C   0  0  0  0  0  0  0  0  0  0  0  0
    1.8938    7.3534    0.0000 C   0  0  1  0  0  0  0  0  0  0  0  0
    1.1746    6.9493    0.0000 C   0  0  1  0  0  0  0  0  0  0  0  0
    1.1650    6.1243    0.0000 C   0  0  2  0  0  0  0  0  0  0  0  0
    4.7460    4.8335    0.0000 C   0  0  0  0  0  0  0  0  0  0  0  0
    1.7215    3.5756    0.0000 C   0  0  0  0  0  0  0  0  0  0  0  0
    4.7460    3.1835    0.0000 C   0  0  0  0  0  0  0  0  0  0  0  0
    5.4604    4.4210    0.0000 C   0  0  0  0  0  0  0  0  0  0  0  0
    5.4604    3.5960    0.0000 C   0  0  0  0  0  0  0  0  0  0  0  0
    0.4459    5.7201    0.0000 C   0  0  0  0  0  0  0  0  0  0  0  0
    1.3118    2.8596    0.0000 C   0  0  0  0  0  0  0  0  0  0  0  0
    6.1979    4.8621    0.0000 C   0  0  0  0  0  0  0  0  0  0  0  0
    6.1979    3.1549    0.0000 C   0  0  0  0  0  0  0  0  0  0  0  0
    6.9454    4.4382    0.0000 C   0  0  0  0  0  0  0  0  0  0  0  0
    6.9454    3.5789    0.0000 C   0  0  0  0  0  0  0  0  0  0  0  0
    7.7136    4.8976    0.0000 C   0  0  0  0  0  0  0  0  0  0  0  0
    7.7136    3.1194    0.0000 C   0  0  0  0  0  0  0  0  0  0  0  0
    8.4921    4.4561    0.0000 C   0  0  0  0  0  0  0  0  0  0  0  0
    8.4921    3.5610    0.0000 C   0  0  0  0  0  0  0  0  0  0  0  0
    8.4137    6.1433    0.0000 C   0  0  0  0  0  0  0  0  0  0  0  0
 13  1  1  6  0  0  0
 19  1  1  6  0  0  0
 19  2  1  0  0  0  0
 23  2  1  0  0  0  0
 14  3  1  6  0  0  0
 22  4  1  1  0  0  0
  5 24  1  0  0  0  0
  6 26  1  0  0  0  0
  7 25  2  0  0  0  0
  8 30  1  0  0  0  0
  9 31  2  0  0  0  0
 10 32  2  0  0  0  0
 11 35  1  0  0  0  0
 11 39  1  0  0  0  0
 21 12  1  1  0  0  0
 13 15  1  0  0  0  0
 13 17  1  0  0  0  0
 14 15  1  0  0  0  0
 14 16  1  0  0  0  0
 14 25  1  1  0  0  0
 16 18  1  0  0  0  0
 17 18  2  0  0  0  0
 17 24  1  0  0  0  0
 18 26  1  0  0  0  0
 19 20  1  0  0  0  0
 21 20  1  0  0  0  0
 22 21  1  0  0  0  0
 22 23  1  0  0  0  0
 23 29  1  1  0  0  0
 24 27  2  0  0  0  0
 25 30  1  0  0  0  0
 26 28  2  0  0  0  0
 27 28  1  0  0  0  0
 27 31  1  0  0  0  0
 28 32  1  0  0  0  0
 31 33  1  0  0  0  0
 32 34  1  0  0  0  0
 33 34  2  0  0  0  0
 33 35  1  0  0  0  0
 34 36  1  0  0  0  0
 35 37  2  0  0  0  0
 36 38  2  0  0  0  0
 37 38  1  0  0  0  0
M  END
> <From>
www.bindingDB.org

> <BindingDB Reactant_set_id>
108209

> <Ligand InChI>
InChI=1S/C27H29NO11/c1-10-22(31)13(28)6-17(38-10)39-15-8-27(36,16(30)9-29)7-12-19(15)26(35)21-20(24(12)33)23(32)11-4-3-5-14(37-2)18(11)25(21)34/h3-5,10,13,15,17,22,29,31,33,35-36H,6-9,28H2,1-2H3/t10-,13-,15-,17-,22+,27-/m0/s1

> <Ligand InChI Key>
AOJJSUZBOXZQNB-TZSSRYMLSA-N

> <BindingDB MonomerID>
32022

> <BindingDB Ligand Name>
(7S,9S)-7-[(2R,4S,5S,6S)-4-amino-5-hydroxy-6-methyl-tetrahydropyran-2-yl]oxy-9-glycoloyl-6,9,11-trihydroxy-4-methoxy-8,10-dihydro-7H-tetracene-5,12-quinone;hydrochloride::(7S,9S)-7-[(2R,4S,5S,6S)-4-amino-5-hydroxy-6-methyloxan-2-yl]oxy-6,9,11-trihydroxy-9-(2-hydroxyacetyl)-4-methoxy-8,10-dihydro-7H-tetracene-5,12-dione;hydrochloride::(7S,9S)-7-[(2R,4S,5S,6S)-4-azanyl-6-methyl-5-oxidanyl-oxan-2-yl]oxy-4-methoxy-6,9,11-tris(oxidanyl)-9-(2-oxidanylethanoyl)-8,10-dihydro-7H-tetracene-5,12-dione;hydrochloride::(7S,9S)-7-[[(2R,4S,5S,6S)-4-amino-5-hydroxy-6-methyl-2-oxanyl]oxy]-6,9,11-trihydroxy-9-(2-hydroxy-1-oxoethyl)-4-methoxy-8,10-dihydro-7H-tetracene-5,12-dione;hydrochloride::DOXORUBICIN HYDROCHLORIDE::MLS000028393::SMR000058570::cid_443939

> <Target Name>
DNA repair protein RAD51 homolog 1

> <Target Source Organism According to Curator or DataSource>
Homo sapiens

> <Ki (nM)>


> <IC50 (nM)>
 85000

> <Kd (nM)>


> <EC50 (nM)>


> <kon (M-1-s-1)>


> <koff (s-1)>


> <pH>


> <Temp C>


> <Curation/DataSource>
PubChem

> <Article DOI>


> <BindingDB Entry DOI>
10.7270/Q2BV7F1T

> <PMID>


> <PubChem AID>
aid1435

> <Patent Number>


> <Authors>
PubChem, PC

> <Date of publication>
11/21/2008

> <Date in BindingDB>
6/8/2011

> <Institution>
PCMD

> <Link to Ligand in BindingDB>
http://www.bindingdb.org/bind/chemsearch/marvin/MolStructure.jsp?monomerid=32022

> <Link to Ligand-Target Pair in BindingDB>
http://www.bindingdb.org/jsp/dbsearch/PrimarySearch_ki.jsp?energyterm=kJ/mole&tag=pol&polymerid=4676&target=DNA+repair+protein+RAD51+homolog+1&column=ki&startPg=0&Increment=50&submit=Search

> <Link to Ligand-Target Pair in BindingDB>
http://www.bindingdb.org/jsp/dbsearch/PrimarySearch_ki.jsp?energyterm=kJ/mole&tag=r21&monomerid=32022&enzyme=DNA+repair+protein+RAD51+homolog+1&column=ki&startPg=0&Increment=50&submit=Search

> <Ligand HET ID in PDB>
DM2

> <PDB ID(s) for Ligand-Target Complex>
5OM7,5MRA,6FTP,6KN4,1P20,1D12,1I1E,4DX7,2DR6,4ZVM,7CSK,151D,1DA9

> <PubChem CID of Ligand>
31703

> <PubChem SID of Ligand>
252615481

> <ChEBI ID of Ligand>
28748

> <ChEMBL ID of Ligand>


> <DrugBank ID of Ligand>
DB00997

> <IUPHAR_GRAC ID of Ligand>


> <KEGG ID of Ligand>
C01661

> <ZINC ID of Ligand>
ZINC03918087

> <Number of Protein Chains in Target (bigger than 1 implies a multichain complex)>
1

> <BindingDB Target Chain Sequence>
MAMQMQLEANADTSVEEESFGPQPISRLEQCGINANDVKKLEEAGFHTVEAVAYAPKKELINIKGISEAKADKILAEAAKLVPMGFTTATEFHQRRSEIIQITTGSKELDKLLQGGIETGSITEMFGEFRTGKTQICHTLAVTCQLPIDRGGGEGKAMYIDTEGTFRPERLLAVAERYGLSGSDVLDNVAYARAFNTDHQTQLLYQASAMMVESRYALLIVDSATALYRTDYSGRGELSARQMHLARFLRMLLRLADEFGVAVVITNQVVAQVDGAAMFAADPKKPIGGNIIAHASTTRLYLRKGRGETRICKIYDSPCLPEAEAMFAINADGVGDAKD

> <PDB ID(s) of Target Chain>
1N0W,5JZC,5NP7,5NWL,8BQ2,8BR2,8BSC

> <UniProt (SwissProt) Recommended Name of Target Chain>
DNA repair protein RAD51 homolog 1

> <UniProt (SwissProt) Entry Name of Target Chain>
RAD51_HUMAN

> <UniProt (SwissProt) Primary ID of Target Chain>
Q06609

> <UniProt (SwissProt) Secondary ID(s) of Target Chain>
B0FXP0 B2R8T6 Q6FHX9 Q6ZNA8 Q9BV60

> <UniProt (SwissProt) Alternative ID(s) of Target Chain>


> <UniProt (TrEMBL) Submitted Name of Target Chain>


> <UniProt (TrEMBL) Entry Name of Target Chain>


> <UniProt (TrEMBL) Primary ID of Target Chain>


> <UniProt (TrEMBL) Secondary ID(s) of Target Chain>


> <UniProt (TrEMBL) Alternative ID(s) of Target Chain>


$$$$
660526
  Mrv0541 11251416042D          

 31 34  0  0  0  0            999 V2000
    5.5245    0.4295    0.0000 O   0  0  0  0  0  0  0  0  0  0  0  0
    4.5080   -1.9350    0.0000 O   0  0  0  0  0  0  0  0  0  0  0  0
    3.0790   -0.2850    0.0000 O   0  0  0  0  0  0  0  0  0  0  0  0
    3.7935   -1.5225    0.0000 O   0  0  0  0  0  0  0  0  0  0  0  0
    8.7386   -1.1100    0.0000 N   0  0  0  0  0  0  0  0  0  0  0  0
    7.4321   -0.4461    0.0000 N   0  0  0  0  0  0  0  0  0  0  0  0
    7.4321   -1.7739    0.0000 N   0  0  0  0  0  0  0  0  0  0  0  0
    5.9370   -1.9350    0.0000 N   0  0  0  0  0  0  0  0  0  0  0  0
    5.2224   -0.6975    0.0000 N   0  0  0  0  0  0  0  0  0  0  0  0
    9.1511   -1.8244    0.0000 C   0  0  0  0  0  0  0  0  0  0  0  0
    9.1511   -0.3955    0.0000 C   0  0  0  0  0  0  0  0  0  0  0  0
    9.9761   -0.3955    0.0000 C   0  0  0  0  0  0  0  0  0  0  0  0
    9.9761   -1.8244    0.0000 C   0  0  0  0  0  0  0  0  0  0  0  0
   10.3886   -1.1100    0.0000 C   0  0  0  0  0  0  0  0  0  0  0  0
    7.9136   -1.1100    0.0000 C   0  0  0  0  0  0  0  0  0  0  0  0
    6.6515   -0.6975    0.0000 C   0  0  0  0  0  0  0  0  0  0  0  0
    6.6515   -1.5225    0.0000 C   0  0  0  0  0  0  0  0  0  0  0  0
    7.6884    0.3382    0.0000 C   0  0  0  0  0  0  0  0  0  0  0  0
    5.9370   -0.2850    0.0000 C   0  0  0  0  0  0  0  0  0  0  0  0
    5.2224   -1.5225    0.0000 C   0  0  0  0  0  0  0  0  0  0  0  0
    7.5182    1.1455    0.0000 C   0  0  0  0  0  0  0  0  0  0  0  0
    5.9370   -2.7600    0.0000 C   0  0  0  0  0  0  0  0  0  0  0  0
    4.5080   -0.2850    0.0000 C   0  0  0  0  0  0  0  0  0  0  0  0
    8.1323    1.6964    0.0000 C   0  0  0  0  0  0  0  0  0  0  0  0
    6.7340    1.4017    0.0000 C   0  0  0  0  0  0  0  0  0  0  0  0
    3.7935   -0.6975    0.0000 C   0  0  0  0  0  0  0  0  0  0  0  0
    7.9622    2.5037    0.0000 C   0  0  0  0  0  0  0  0  0  0  0  0
    6.5639    2.2090    0.0000 C   0  0  0  0  0  0  0  0  0  0  0  0
    7.1780    2.7600    0.0000 C   0  0  0  0  0  0  0  0  0  0  0  0
    2.3645   -0.6975    0.0000 C   0  0  0  0  0  0  0  0  0  0  0  0
    1.6500   -0.2850    0.0000 C   0  0  0  0  0  0  0  0  0  0  0  0
  1 19  2  0  0  0  0
  2 20  2  0  0  0  0
  3 26  1  0  0  0  0
  3 30  1  0  0  0  0
  4 26  2  0  0  0  0
  5 10  1  0  0  0  0
  5 11  1  0  0  0  0
  5 15  1  0  0  0  0
  6 15  1  0  0  0  0
  6 16  1  0  0  0  0
  6 18  1  0  0  0  0
  7 15  2  0  0  0  0
  7 17  1  0  0  0  0
  8 17  1  0  0  0  0
  8 20  1  0  0  0  0
  8 22  1  0  0  0  0
  9 19  1  0  0  0  0
  9 20  1  0  0  0  0
  9 23  1  0  0  0  0
 10 13  1  0  0  0  0
 11 12  1  0  0  0  0
 12 14  1  0  0  0  0
 13 14  1  0  0  0  0
 16 17  2  0  0  0  0
 16 19  1  0  0  0  0
 18 21  1  0  0  0  0
 21 24  2  0  0  0  0
 21 25  1  0  0  0  0
 23 26  1  0  0  0  0
 24 27  1  0  0  0  0
 25 28  2  0  0  0  0
 27 29  2  0  0  0  0
 28 29  1  0  0  0  0
 30 31  1  0  0  0  0
M  END
> <From>
www.bindingDB.org

> <BindingDB Reactant_set_id>
108210

> <Ligand InChI>
InChI=1S/C22H27N5O4/c1-3-31-17(28)15-27-20(29)18-19(24(2)22(27)30)23-21(25-12-8-5-9-13-25)26(18)14-16-10-6-4-7-11-16/h4,6-7,10-11H,3,5,8-9,12-15H2,1-2H3

> <Ligand InChI Key>
UEUBDMGNETZVBL-UHFFFAOYSA-N

> <BindingDB MonomerID>
51319

> <BindingDB Ligand Name>
2-(7-benzyl-2,6-diketo-3-methyl-8-piperidino-purin-1-yl)acetic acid ethyl ester::2-[3-methyl-2,6-dioxo-7-(phenylmethyl)-8-(1-piperidinyl)-1-purinyl]acetic acid ethyl ester::EPIRUBICIN HYDROCHLORIDE::MLS000037525::MLS001401404::SMR000041357::SMR000466308::cid_65348::cid_660526::ethyl 2-(7-benzyl-3-methyl-2,6-dioxo-8-piperidin-1-ylpurin-1-yl)acetate::ethyl 2-[3-methyl-2,6-bis(oxidanylidene)-7-(phenylmethyl)-8-piperidin-1-yl-purin-1-yl]ethanoate

> <Target Name>
DNA repair protein RAD51 homolog 1

> <Target Source Organism According to Curator or DataSource>
Homo sapiens

> <Ki (nM)>


> <IC50 (nM)>
 1399

> <Kd (nM)>


> <EC50 (nM)>


> <kon (M-1-s-1)>


> <koff (s-1)>


> <pH>


> <Temp C>


> <Curation/DataSource>
PubChem

> <Article DOI>


> <BindingDB Entry DOI>
10.7270/Q2BV7F1T

> <PMID>


> <PubChem AID>
aid1435

> <Patent Number>


> <Authors>
PubChem, PC

> <Date of publication>
11/21/2008

> <Date in BindingDB>
6/8/2011

> <Institution>
PCMD

> <Link to Ligand in BindingDB>
http://www.bindingdb.org/bind/chemsearch/marvin/MolStructure.jsp?monomerid=51319

> <Link to Ligand-Target Pair in BindingDB>
http://www.bindingdb.org/jsp/dbsearch/PrimarySearch_ki.jsp?energyterm=kJ/mole&tag=pol&polymerid=4676&target=DNA+repair+protein+RAD51+homolog+1&column=ki&startPg=0&Increment=50&submit=Search

> <Link to Ligand-Target Pair in BindingDB>
http://www.bindingdb.org/jsp/dbsearch/PrimarySearch_ki.jsp?energyterm=kJ/mole&tag=r21&monomerid=51319&enzyme=DNA+repair+protein+RAD51+homolog+1&column=ki&startPg=0&Increment=50&submit=Search

> <Ligand HET ID in PDB>


> <PDB ID(s) for Ligand-Target Complex>


> <PubChem CID of Ligand>
660526

> <PubChem SID of Ligand>
252631542

> <ChEBI ID of Ligand>


> <ChEMBL ID of Ligand>


> <DrugBank ID of Ligand>


> <IUPHAR_GRAC ID of Ligand>


> <KEGG ID of Ligand>


> <ZINC ID of Ligand>
ZINC13115922

> <Number of Protein Chains in Target (bigger than 1 implies a multichain complex)>
1

> <BindingDB Target Chain Sequence>
MAMQMQLEANADTSVEEESFGPQPISRLEQCGINANDVKKLEEAGFHTVEAVAYAPKKELINIKGISEAKADKILAEAAKLVPMGFTTATEFHQRRSEIIQITTGSKELDKLLQGGIETGSITEMFGEFRTGKTQICHTLAVTCQLPIDRGGGEGKAMYIDTEGTFRPERLLAVAERYGLSGSDVLDNVAYARAFNTDHQTQLLYQASAMMVESRYALLIVDSATALYRTDYSGRGELSARQMHLARFLRMLLRLADEFGVAVVITNQVVAQVDGAAMFAADPKKPIGGNIIAHASTTRLYLRKGRGETRICKIYDSPCLPEAEAMFAINADGVGDAKD

> <PDB ID(s) of Target Chain>
1N0W,5JZC,5NP7,5NWL,8BQ2,8BR2,8BSC

> <UniProt (SwissProt) Recommended Name of Target Chain>
DNA repair protein RAD51 homolog 1

> <UniProt (SwissProt) Entry Name of Target Chain>
RAD51_HUMAN

> <UniProt (SwissProt) Primary ID of Target Chain>
Q06609

> <UniProt (SwissProt) Secondary ID(s) of Target Chain>
B0FXP0 B2R8T6 Q6FHX9 Q6ZNA8 Q9BV60

> <UniProt (SwissProt) Alternative ID(s) of Target Chain>


> <UniProt (TrEMBL) Submitted Name of Target Chain>


> <UniProt (TrEMBL) Entry Name of Target Chain>


> <UniProt (TrEMBL) Primary ID of Target Chain>


> <UniProt (TrEMBL) Secondary ID(s) of Target Chain>


> <UniProt (TrEMBL) Alternative ID(s) of Target Chain>


$$$$
5738263
  Mrv0541 11251415582D          

 26 29  0  0  0  0            999 V2000
    5.2223   -1.6500    0.0000 O   0  0  0  0  0  0  0  0  0  0  0  0
    4.5079   -0.4125    0.0000 N   0  0  0  0  0  0  0  0  0  0  0  0
    5.2223    0.8250    0.0000 N   0  0  0  0  0  0  0  0  0  0  0  0
    1.6500    2.0625    0.0000 N   0  0  0  0  0  0  0  0  0  0  0  0
    3.7934   -0.8250    0.0000 C   0  0  0  0  0  0  0  0  0  0  0  0
    4.5079    0.4125    0.0000 C   0  0  0  0  0  0  0  0  0  0  0  0
    5.9369   -0.4125    0.0000 C   0  0  0  0  0  0  0  0  0  0  0  0
    5.2223   -0.8250    0.0000 C   0  0  0  0  0  0  0  0  0  0  0  0
    3.7934   -1.6500    0.0000 C   0  0  0  0  0  0  0  0  0  0  0  0
    5.9369    0.4125    0.0000 C   0  0  0  0  0  0  0  0  0  0  0  0
    6.6743   -0.8536    0.0000 C   0  0  0  0  0  0  0  0  0  0  0  0
    3.7934    0.8250    0.0000 C   0  0  0  0  0  0  0  0  0  0  0  0
    6.6743    0.8536    0.0000 C   0  0  0  0  0  0  0  0  0  0  0  0
    3.0789   -2.0625    0.0000 C   0  0  0  0  0  0  0  0  0  0  0  0
    4.5079   -2.0625    0.0000 C   0  0  0  0  0  0  0  0  0  0  0  0
    7.4219   -0.4297    0.0000 C   0  0  0  0  0  0  0  0  0  0  0  0
    7.4219    0.4297    0.0000 C   0  0  0  0  0  0  0  0  0  0  0  0
    3.7934    1.6500    0.0000 C   0  0  0  0  0  0  0  0  0  0  0  0
    3.0789   -2.8875    0.0000 C   0  0  0  0  0  0  0  0  0  0  0  0
    4.5079   -2.8875    0.0000 C   0  0  0  0  0  0  0  0  0  0  0  0
    3.7934   -3.3000    0.0000 C   0  0  0  0  0  0  0  0  0  0  0  0
    3.0789    2.0625    0.0000 C   0  0  0  0  0  0  0  0  0  0  0  0
    3.0789    2.8875    0.0000 C   0  0  0  0  0  0  0  0  0  0  0  0
    2.3644    1.6500    0.0000 C   0  0  0  0  0  0  0  0  0  0  0  0
    2.3644    3.3000    0.0000 C   0  0  0  0  0  0  0  0  0  0  0  0
    1.6500    2.8875    0.0000 C   0  0  0  0  0  0  0  0  0  0  0  0
  1  8  2  0  0  0  0
  2  5  1  0  0  0  0
  2  6  1  0  0  0  0
  2  8  1  0  0  0  0
  3  6  2  0  0  0  0
  3 10  1  0  0  0  0
  4 24  2  0  0  0  0
  4 26  1  0  0  0  0
  5  9  1  0  0  0  0
  6 12  1  0  0  0  0
  7  8  1  0  0  0  0
  7 10  1  0  0  0  0
  7 11  2  0  0  0  0
  9 14  2  0  0  0  0
  9 15  1  0  0  0  0
 10 13  2  0  0  0  0
 11 16  1  0  0  0  0
 12 18  2  0  0  0  0
 13 17  1  0  0  0  0
 14 19  1  0  0  0  0
 15 20  2  0  0  0  0
 16 17  2  0  0  0  0
 18 22  1  0  0  0  0
 19 21  2  0  0  0  0
 20 21  1  0  0  0  0
 22 23  2  0  0  0  0
 22 24  1  0  0  0  0
 23 25  1  0  0  0  0
 25 26  2  0  0  0  0
M  END
> <From>
www.bindingDB.org

> <BindingDB Reactant_set_id>
50074164

> <Ligand InChI>
InChI=1S/C22H17N3O/c26-22-19-10-4-5-11-20(19)24-21(13-12-17-9-6-14-23-15-17)25(22)16-18-7-2-1-3-8-18/h1-15H,16H2/b13-12+

> <Ligand InChI Key>
GEKDQXSPTHHANP-OUKQBFOZSA-N

> <BindingDB MonomerID>
48804

> <BindingDB Ligand Name>
3-(phenylmethyl)-2-[(E)-2-(3-pyridinyl)ethenyl]-4-quinazolinone::3-(phenylmethyl)-2-[(E)-2-pyridin-3-ylethenyl]quinazolin-4-one::3-benzyl-2-[(E)-2-(3-pyridyl)vinyl]quinazolin-4-one::3-benzyl-2-[(E)-2-pyridin-3-ylethenyl]quinazolin-4-one::MLS000709026::SMR000289793::cid_5738263

> <Target Name>
DNA repair protein RAD51 homolog 1

> <Target Source Organism According to Curator or DataSource>
Homo sapiens

> <Ki (nM)>


> <IC50 (nM)>
 35000

> <Kd (nM)>


> <EC50 (nM)>


> <kon (M-1-s-1)>


> <koff (s-1)>


> <pH>


> <Temp C>


> <Curation/DataSource>
ChEMBL

> <Article DOI>
10.1021/jm201173g

> <BindingDB Entry DOI>
10.7270/Q2028SKG

> <PMID>
22380680

> <PubChem AID>


> <Patent Number>


> <Authors>
Huang, F; Mazina, OM; Zentner, IJ; Cocklin, S; Mazin, AV

> <Date of publication>
4/12/2012

> <Date in BindingDB>
2/7/2013

> <Institution>
Drexel University College of Medicine

> <Link to Ligand in BindingDB>
http://www.bindingdb.org/bind/chemsearch/marvin/MolStructure.jsp?monomerid=48804

> <Link to Ligand-Target Pair in BindingDB>
http://www.bindingdb.org/jsp/dbsearch/PrimarySearch_ki.jsp?energyterm=kJ/mole&tag=pol&polymerid=4676&target=DNA+repair+protein+RAD51+homolog+1&column=ki&startPg=0&Increment=50&submit=Search

> <Link to Ligand-Target Pair in BindingDB>
http://www.bindingdb.org/jsp/dbsearch/PrimarySearch_ki.jsp?energyterm=kJ/mole&tag=r21&monomerid=48804&enzyme=DNA+repair+protein+RAD51+homolog+1&column=ki&startPg=0&Increment=50&submit=Search

> <Ligand HET ID in PDB>


> <PDB ID(s) for Ligand-Target Complex>


> <PubChem CID of Ligand>
5738263

> <PubChem SID of Ligand>
252629091

> <ChEBI ID of Ligand>


> <ChEMBL ID of Ligand>


> <DrugBank ID of Ligand>


> <IUPHAR_GRAC ID of Ligand>


> <KEGG ID of Ligand>


> <ZINC ID of Ligand>
ZINC04537641

> <Number of Protein Chains in Target (bigger than 1 implies a multichain complex)>
1

> <BindingDB Target Chain Sequence>
MAMQMQLEANADTSVEEESFGPQPISRLEQCGINANDVKKLEEAGFHTVEAVAYAPKKELINIKGISEAKADKILAEAAKLVPMGFTTATEFHQRRSEIIQITTGSKELDKLLQGGIETGSITEMFGEFRTGKTQICHTLAVTCQLPIDRGGGEGKAMYIDTEGTFRPERLLAVAERYGLSGSDVLDNVAYARAFNTDHQTQLLYQASAMMVESRYALLIVDSATALYRTDYSGRGELSARQMHLARFLRMLLRLADEFGVAVVITNQVVAQVDGAAMFAADPKKPIGGNIIAHASTTRLYLRKGRGETRICKIYDSPCLPEAEAMFAINADGVGDAKD

> <PDB ID(s) of Target Chain>
1N0W,5JZC,5NP7,5NWL,8BQ2,8BR2,8BSC

> <UniProt (SwissProt) Recommended Name of Target Chain>
DNA repair protein RAD51 homolog 1

> <UniProt (SwissProt) Entry Name of Target Chain>
RAD51_HUMAN

> <UniProt (SwissProt) Primary ID of Target Chain>
Q06609

> <UniProt (SwissProt) Secondary ID(s) of Target Chain>
B0FXP0 B2R8T6 Q6FHX9 Q6ZNA8 Q9BV60

> <UniProt (SwissProt) Alternative ID(s) of Target Chain>


> <UniProt (TrEMBL) Submitted Name of Target Chain>


> <UniProt (TrEMBL) Entry Name of Target Chain>


> <UniProt (TrEMBL) Primary ID of Target Chain>


> <UniProt (TrEMBL) Secondary ID(s) of Target Chain>


> <UniProt (TrEMBL) Alternative ID(s) of Target Chain>


$$$$

  SciTegic12211613292D

 20 23  0  0  0  0            999 V2000
    5.8267   -3.6371    0.0000 C   0  0
    4.5254   -4.3830    0.0000 C   0  0
    3.2287   -3.6290    0.0000 C   0  0
    3.2335   -2.1297    0.0000 C   0  0
    4.5347   -1.3830    0.0000 C   0  0
    5.8314   -2.1371    0.0000 C   0  0
    0.6426    0.8996    0.0000 N   0  0
    1.9460    0.1469    0.0000 C   0  0
    1.9460   -1.3585    0.0000 C   0  0
    0.6426   -2.0562    0.0000 N   0  0
   -0.6609   -1.3585    0.0000 C   0  0
   -1.9460   -2.0562    0.0000 C   0  0
   -3.2678   -1.3585    0.0000 C   0  0
   -3.2678    0.1469    0.0000 C   0  0
   -1.9460    0.8996    0.0000 C   0  0
   -0.6609    0.1469    0.0000 C   0  0
    3.0843    1.1566    0.0000 C   0  0
    2.4601    2.5335    0.0000 C   0  0
    0.9547    2.3683    0.0000 C   0  0
    6.8641   -4.2403    0.0000 O   0  0
  1  2  1  0
  2  3  2  0
  3  4  1  0
  4  5  2  0
  5  6  1  0
  1  6  2  0
  7  8  1  0
  8  9  1  0
  9 10  2  0
 10 11  1  0
 11 12  1  0
 12 13  2  0
 13 14  1  0
 14 15  2  0
 15 16  1  0
  7 16  1  0
 11 16  2  0
 17 18  1  0
 18 19  2  0
  7 19  1  0
  8 17  2  0
  4  9  1  0
  1 20  1  0
M  END
> <From>
www.bindingDB.org

> <BindingDB Reactant_set_id>
50504687

> <Ligand InChI>
InChI=1S/C17H12N2O/c20-13-9-7-12(8-10-13)17-16-6-3-11-19(16)15-5-2-1-4-14(15)18-17/h1-11,20H

> <Ligand InChI Key>
VAAZADVYJAGCEK-UHFFFAOYSA-N

> <BindingDB MonomerID>
50184316

> <BindingDB Ligand Name>
CHEMBL3823737

> <Target Name>
DNA repair protein RAD51 homolog 1

> <Target Source Organism According to Curator or DataSource>
Homo sapiens

> <Ki (nM)>


> <IC50 (nM)>
>100000

> <Kd (nM)>


> <EC50 (nM)>


> <kon (M-1-s-1)>


> <koff (s-1)>


> <pH>


> <Temp C>


> <Curation/DataSource>
ChEMBL

> <Article DOI>
10.1021/acs.jmedchem.5b01762

> <BindingDB Entry DOI>
10.7270/Q200041Q

> <PMID>
27049177

> <PubChem AID>


> <Patent Number>


> <Authors>
Lv, W; Budke, B; Pawlowski, M; Connell, PP; Kozikowski, AP

> <Date of publication>
5/26/2016

> <Date in BindingDB>
10/1/2017

> <Institution>
University of Illinois at Chicago

> <Link to Ligand in BindingDB>
http://www.bindingdb.org/bind/chemsearch/marvin/MolStructure.jsp?monomerid=50184316

> <Link to Ligand-Target Pair in BindingDB>
http://www.bindingdb.org/jsp/dbsearch/PrimarySearch_ki.jsp?energyterm=kJ/mole&tag=pol&polymerid=4676&target=DNA+repair+protein+RAD51+homolog+1&column=ki&startPg=0&Increment=50&submit=Search

> <Link to Ligand-Target Pair in BindingDB>
http://www.bindingdb.org/jsp/dbsearch/PrimarySearch_ki.jsp?energyterm=kJ/mole&tag=r21&monomerid=50184316&enzyme=DNA+repair+protein+RAD51+homolog+1&column=ki&startPg=0&Increment=50&submit=Search

> <Ligand HET ID in PDB>


> <PDB ID(s) for Ligand-Target Complex>


> <PubChem CID of Ligand>
127052933

> <PubChem SID of Ligand>
104068710

> <ChEBI ID of Ligand>


> <ChEMBL ID of Ligand>
CHEMBL3823737

> <DrugBank ID of Ligand>


> <IUPHAR_GRAC ID of Ligand>


> <KEGG ID of Ligand>


> <ZINC ID of Ligand>
ZINC00006856

> <Number of Protein Chains in Target (bigger than 1 implies a multichain complex)>
1

> <BindingDB Target Chain Sequence>
MAMQMQLEANADTSVEEESFGPQPISRLEQCGINANDVKKLEEAGFHTVEAVAYAPKKELINIKGISEAKADKILAEAAKLVPMGFTTATEFHQRRSEIIQITTGSKELDKLLQGGIETGSITEMFGEFRTGKTQICHTLAVTCQLPIDRGGGEGKAMYIDTEGTFRPERLLAVAERYGLSGSDVLDNVAYARAFNTDHQTQLLYQASAMMVESRYALLIVDSATALYRTDYSGRGELSARQMHLARFLRMLLRLADEFGVAVVITNQVVAQVDGAAMFAADPKKPIGGNIIAHASTTRLYLRKGRGETRICKIYDSPCLPEAEAMFAINADGVGDAKD

> <PDB ID(s) of Target Chain>
1N0W,5JZC,5NP7,5NWL,8BQ2,8BR2,8BSC

> <UniProt (SwissProt) Recommended Name of Target Chain>
DNA repair protein RAD51 homolog 1

> <UniProt (SwissProt) Entry Name of Target Chain>
RAD51_HUMAN

> <UniProt (SwissProt) Primary ID of Target Chain>
Q06609

> <UniProt (SwissProt) Secondary ID(s) of Target Chain>
B0FXP0 B2R8T6 Q6FHX9 Q6ZNA8 Q9BV60

> <UniProt (SwissProt) Alternative ID(s) of Target Chain>


> <UniProt (TrEMBL) Submitted Name of Target Chain>


> <UniProt (TrEMBL) Entry Name of Target Chain>


> <UniProt (TrEMBL) Primary ID of Target Chain>


> <UniProt (TrEMBL) Secondary ID(s) of Target Chain>


> <UniProt (TrEMBL) Alternative ID(s) of Target Chain>


$$$$

  SciTegic12211613292D

 24 27  0  0  0  0            999 V2000
    5.8267   -3.6371    0.0000 C   0  0
    4.5254   -4.3830    0.0000 C   0  0
    3.2287   -3.6290    0.0000 C   0  0
    3.2335   -2.1297    0.0000 C   0  0
    4.5347   -1.3830    0.0000 C   0  0
    5.8314   -2.1371    0.0000 C   0  0
    0.6426    0.8996    0.0000 N   0  0
    1.9460    0.1469    0.0000 C   0  0
    1.9460   -1.3585    0.0000 C   0  0
    0.6426   -2.0562    0.0000 N   0  0
   -0.6609   -1.3585    0.0000 C   0  0
   -1.9460   -2.0562    0.0000 C   0  0
   -3.2678   -1.3585    0.0000 C   0  0
   -3.2678    0.1469    0.0000 C   0  0
   -1.9460    0.8996    0.0000 C   0  0
   -0.6609    0.1469    0.0000 C   0  0
    3.0843    1.1566    0.0000 C   0  0
    2.4601    2.5335    0.0000 C   0  0
    0.9547    2.3683    0.0000 C   0  0
    7.1257   -4.3889    0.0000 O   0  0
    8.4267   -3.6407    0.0000 C   0  0
    9.4653   -4.2418    0.0000 F   0  0
    8.4284   -2.4407    0.0000 F   0  0
    9.4667   -3.0420    0.0000 F   0  0
  1  2  1  0
  2  3  2  0
  3  4  1  0
  4  5  2  0
  5  6  1  0
  1  6  2  0
  7  8  1  0
  8  9  1  0
  9 10  2  0
 10 11  1  0
 11 12  1  0
 12 13  2  0
 13 14  1  0
 14 15  2  0
 15 16  1  0
  7 16  1  0
 11 16  2  0
 17 18  1  0
 18 19  2  0
  7 19  1  0
  8 17  2  0
  4  9  1  0
  1 20  1  0
 20 21  1  0
 21 22  1  0
 21 23  1  0
 21 24  1  0
M  END
> <From>
www.bindingDB.org

> <BindingDB Reactant_set_id>
50504688

> <Ligand InChI>
InChI=1S/C18H11F3N2O/c19-18(20,21)24-13-9-7-12(8-10-13)17-16-6-3-11-23(16)15-5-2-1-4-14(15)22-17/h1-11H

> <Ligand InChI Key>
AMKJCPHYWMMTOF-UHFFFAOYSA-N

> <BindingDB MonomerID>
50184317

> <BindingDB Ligand Name>
CHEMBL3822905

> <Target Name>
DNA repair protein RAD51 homolog 1

> <Target Source Organism According to Curator or DataSource>
Homo sapiens

> <Ki (nM)>


> <IC50 (nM)>
>100000

> <Kd (nM)>


> <EC50 (nM)>


> <kon (M-1-s-1)>


> <koff (s-1)>


> <pH>


> <Temp C>


> <Curation/DataSource>
ChEMBL

> <Article DOI>
10.1021/acs.jmedchem.5b01762

> <BindingDB Entry DOI>
10.7270/Q200041Q

> <PMID>
27049177

> <PubChem AID>


> <Patent Number>


> <Authors>
Lv, W; Budke, B; Pawlowski, M; Connell, PP; Kozikowski, AP

> <Date of publication>
5/26/2016

> <Date in BindingDB>
10/1/2017

> <Institution>
University of Illinois at Chicago

> <Link to Ligand in BindingDB>
http://www.bindingdb.org/bind/chemsearch/marvin/MolStructure.jsp?monomerid=50184317

> <Link to Ligand-Target Pair in BindingDB>
http://www.bindingdb.org/jsp/dbsearch/PrimarySearch_ki.jsp?energyterm=kJ/mole&tag=pol&polymerid=4676&target=DNA+repair+protein+RAD51+homolog+1&column=ki&startPg=0&Increment=50&submit=Search

> <Link to Ligand-Target Pair in BindingDB>
http://www.bindingdb.org/jsp/dbsearch/PrimarySearch_ki.jsp?energyterm=kJ/mole&tag=r21&monomerid=50184317&enzyme=DNA+repair+protein+RAD51+homolog+1&column=ki&startPg=0&Increment=50&submit=Search

> <Ligand HET ID in PDB>


> <PDB ID(s) for Ligand-Target Complex>


> <PubChem CID of Ligand>
127052565

> <PubChem SID of Ligand>
104068711

> <ChEBI ID of Ligand>


> <ChEMBL ID of Ligand>
CHEMBL3822905

> <DrugBank ID of Ligand>


> <IUPHAR_GRAC ID of Ligand>


> <KEGG ID of Ligand>


> <ZINC ID of Ligand>
ZINC28571335

> <Number of Protein Chains in Target (bigger than 1 implies a multichain complex)>
1

> <BindingDB Target Chain Sequence>
MAMQMQLEANADTSVEEESFGPQPISRLEQCGINANDVKKLEEAGFHTVEAVAYAPKKELINIKGISEAKADKILAEAAKLVPMGFTTATEFHQRRSEIIQITTGSKELDKLLQGGIETGSITEMFGEFRTGKTQICHTLAVTCQLPIDRGGGEGKAMYIDTEGTFRPERLLAVAERYGLSGSDVLDNVAYARAFNTDHQTQLLYQASAMMVESRYALLIVDSATALYRTDYSGRGELSARQMHLARFLRMLLRLADEFGVAVVITNQVVAQVDGAAMFAADPKKPIGGNIIAHASTTRLYLRKGRGETRICKIYDSPCLPEAEAMFAINADGVGDAKD

> <PDB ID(s) of Target Chain>
1N0W,5JZC,5NP7,5NWL,8BQ2,8BR2,8BSC

> <UniProt (SwissProt) Recommended Name of Target Chain>
DNA repair protein RAD51 homolog 1

> <UniProt (SwissProt) Entry Name of Target Chain>
RAD51_HUMAN

> <UniProt (SwissProt) Primary ID of Target Chain>
Q06609

> <UniProt (SwissProt) Secondary ID(s) of Target Chain>
B0FXP0 B2R8T6 Q6FHX9 Q6ZNA8 Q9BV60

> <UniProt (SwissProt) Alternative ID(s) of Target Chain>


> <UniProt (TrEMBL) Submitted Name of Target Chain>


> <UniProt (TrEMBL) Entry Name of Target Chain>


> <UniProt (TrEMBL) Primary ID of Target Chain>


> <UniProt (TrEMBL) Secondary ID(s) of Target Chain>


> <UniProt (TrEMBL) Alternative ID(s) of Target Chain>


$$$$

  SciTegic12211613292D

 22 25  0  0  0  0            999 V2000
    5.8267   -3.6371    0.0000 C   0  0
    4.5254   -4.3830    0.0000 C   0  0
    3.2287   -3.6290    0.0000 C   0  0
    3.2335   -2.1297    0.0000 C   0  0
    4.5347   -1.3830    0.0000 C   0  0
    5.8314   -2.1371    0.0000 C   0  0
    0.6426    0.8996    0.0000 N   0  0
    1.9460    0.1469    0.0000 C   0  0
    1.9460   -1.3585    0.0000 C   0  0
    0.6426   -2.0562    0.0000 N   0  0
   -0.6609   -1.3585    0.0000 C   0  0
   -1.9460   -2.0562    0.0000 C   0  0
   -3.2678   -1.3585    0.0000 C   0  0
   -3.2678    0.1469    0.0000 C   0  0
   -1.9460    0.8996    0.0000 C   0  0
   -0.6609    0.1469    0.0000 C   0  0
    3.0843    1.1566    0.0000 C   0  0
    2.4601    2.5335    0.0000 C   0  0
    0.9547    2.3683    0.0000 C   0  0
    7.1257   -4.3889    0.0000 N   0  3
    8.1660   -3.7907    0.0000 O   0  0
    7.1240   -5.5889    0.0000 O   0  5
  1  2  1  0
  2  3  2  0
  3  4  1  0
  4  5  2  0
  5  6  1  0
  1  6  2  0
  7  8  1  0
  8  9  1  0
  9 10  2  0
 10 11  1  0
 11 12  1  0
 12 13  2  0
 13 14  1  0
 14 15  2  0
 15 16  1  0
  7 16  1  0
 11 16  2  0
 17 18  1  0
 18 19  2  0
  7 19  1  0
  8 17  2  0
  4  9  1  0
 20 21  2  0
 20 22  1  0
  1 20  1  0
M  CHG  2  20   1  22  -1
M  END
> <From>
www.bindingDB.org

> <BindingDB Reactant_set_id>
50504689

> <Ligand InChI>
InChI=1S/C17H11N3O2/c21-20(22)13-9-7-12(8-10-13)17-16-6-3-11-19(16)15-5-2-1-4-14(15)18-17/h1-11H

> <Ligand InChI Key>
KUBYZAUOQKANFA-UHFFFAOYSA-N

> <BindingDB MonomerID>
50184318

> <BindingDB Ligand Name>
CHEMBL3823934

> <Target Name>
DNA repair protein RAD51 homolog 1

> <Target Source Organism According to Curator or DataSource>
Homo sapiens

> <Ki (nM)>


> <IC50 (nM)>
>100000

> <Kd (nM)>


> <EC50 (nM)>


> <kon (M-1-s-1)>


> <koff (s-1)>


> <pH>


> <Temp C>


> <Curation/DataSource>
ChEMBL

> <Article DOI>
10.1021/acs.jmedchem.5b01762

> <BindingDB Entry DOI>
10.7270/Q200041Q

> <PMID>
27049177

> <PubChem AID>


> <Patent Number>


> <Authors>
Lv, W; Budke, B; Pawlowski, M; Connell, PP; Kozikowski, AP

> <Date of publication>
5/26/2016

> <Date in BindingDB>
10/1/2017

> <Institution>
University of Illinois at Chicago

> <Link to Ligand in BindingDB>
http://www.bindingdb.org/bind/chemsearch/marvin/MolStructure.jsp?monomerid=50184318

> <Link to Ligand-Target Pair in BindingDB>
http://www.bindingdb.org/jsp/dbsearch/PrimarySearch_ki.jsp?energyterm=kJ/mole&tag=pol&polymerid=4676&target=DNA+repair+protein+RAD51+homolog+1&column=ki&startPg=0&Increment=50&submit=Search

> <Link to Ligand-Target Pair in BindingDB>
http://www.bindingdb.org/jsp/dbsearch/PrimarySearch_ki.jsp?energyterm=kJ/mole&tag=r21&monomerid=50184318&enzyme=DNA+repair+protein+RAD51+homolog+1&column=ki&startPg=0&Increment=50&submit=Search

> <Ligand HET ID in PDB>


> <PDB ID(s) for Ligand-Target Complex>


> <PubChem CID of Ligand>
127050490

> <PubChem SID of Ligand>
104068712

> <ChEBI ID of Ligand>


> <ChEMBL ID of Ligand>
CHEMBL3823934

> <DrugBank ID of Ligand>


> <IUPHAR_GRAC ID of Ligand>


> <KEGG ID of Ligand>


> <ZINC ID of Ligand>
ZINC13683758

> <Number of Protein Chains in Target (bigger than 1 implies a multichain complex)>
1

> <BindingDB Target Chain Sequence>
MAMQMQLEANADTSVEEESFGPQPISRLEQCGINANDVKKLEEAGFHTVEAVAYAPKKELINIKGISEAKADKILAEAAKLVPMGFTTATEFHQRRSEIIQITTGSKELDKLLQGGIETGSITEMFGEFRTGKTQICHTLAVTCQLPIDRGGGEGKAMYIDTEGTFRPERLLAVAERYGLSGSDVLDNVAYARAFNTDHQTQLLYQASAMMVESRYALLIVDSATALYRTDYSGRGELSARQMHLARFLRMLLRLADEFGVAVVITNQVVAQVDGAAMFAADPKKPIGGNIIAHASTTRLYLRKGRGETRICKIYDSPCLPEAEAMFAINADGVGDAKD

> <PDB ID(s) of Target Chain>
1N0W,5JZC,5NP7,5NWL,8BQ2,8BR2,8BSC

> <UniProt (SwissProt) Recommended Name of Target Chain>
DNA repair protein RAD51 homolog 1

> <UniProt (SwissProt) Entry Name of Target Chain>
RAD51_HUMAN

> <UniProt (SwissProt) Primary ID of Target Chain>
Q06609

> <UniProt (SwissProt) Secondary ID(s) of Target Chain>
B0FXP0 B2R8T6 Q6FHX9 Q6ZNA8 Q9BV60

> <UniProt (SwissProt) Alternative ID(s) of Target Chain>


> <UniProt (TrEMBL) Submitted Name of Target Chain>


> <UniProt (TrEMBL) Entry Name of Target Chain>


> <UniProt (TrEMBL) Primary ID of Target Chain>


> <UniProt (TrEMBL) Secondary ID(s) of Target Chain>


> <UniProt (TrEMBL) Alternative ID(s) of Target Chain>


$$$$

  SciTegic12211613292D

 20 23  0  0  0  0            999 V2000
    5.8267   -3.6371    0.0000 C   0  0
    4.5254   -4.3830    0.0000 C   0  0
    3.2287   -3.6290    0.0000 C   0  0
    3.2335   -2.1297    0.0000 C   0  0
    4.5347   -1.3830    0.0000 C   0  0
    5.8314   -2.1371    0.0000 C   0  0
    0.6426    0.8996    0.0000 N   0  0
    1.9460    0.1469    0.0000 C   0  0
    1.9460   -1.3585    0.0000 C   0  0
    0.6426   -2.0562    0.0000 N   0  0
   -0.6609   -1.3585    0.0000 C   0  0
   -1.9460   -2.0562    0.0000 C   0  0
   -3.2678   -1.3585    0.0000 C   0  0
   -3.2678    0.1469    0.0000 C   0  0
   -1.9460    0.8996    0.0000 C   0  0
   -0.6609    0.1469    0.0000 C   0  0
    3.0843    1.1566    0.0000 C   0  0
    2.4601    2.5335    0.0000 C   0  0
    0.9547    2.3683    0.0000 C   0  0
    6.8641   -4.2403    0.0000 N   0  0
  1  2  1  0
  2  3  2  0
  3  4  1  0
  4  5  2  0
  5  6  1  0
  1  6  2  0
  7  8  1  0
  8  9  1  0
  9 10  2  0
 10 11  1  0
 11 12  1  0
 12 13  2  0
 13 14  1  0
 14 15  2  0
 15 16  1  0
  7 16  1  0
 11 16  2  0
 17 18  1  0
 18 19  2  0
  7 19  1  0
  8 17  2  0
  4  9  1  0
  1 20  1  0
M  END
> <From>
www.bindingDB.org

> <BindingDB Reactant_set_id>
50504693

> <Ligand InChI>
InChI=1S/C17H13N3/c18-13-9-7-12(8-10-13)17-16-6-3-11-20(16)15-5-2-1-4-14(15)19-17/h1-11H,18H2

> <Ligand InChI Key>
DUTKRZVXBMKLQN-UHFFFAOYSA-N

> <BindingDB MonomerID>
50184319

> <BindingDB Ligand Name>
CHEMBL3824080

> <Target Name>
DNA repair protein RAD51 homolog 1

> <Target Source Organism According to Curator or DataSource>
Homo sapiens

> <Ki (nM)>


> <IC50 (nM)>
 22100

> <Kd (nM)>


> <EC50 (nM)>


> <kon (M-1-s-1)>


> <koff (s-1)>


> <pH>


> <Temp C>


> <Curation/DataSource>
ChEMBL

> <Article DOI>
10.1021/acs.jmedchem.5b01762

> <BindingDB Entry DOI>
10.7270/Q200041Q

> <PMID>
27049177

> <PubChem AID>


> <Patent Number>


> <Authors>
Lv, W; Budke, B; Pawlowski, M; Connell, PP; Kozikowski, AP

> <Date of publication>
5/26/2016

> <Date in BindingDB>
10/1/2017

> <Institution>
University of Illinois at Chicago

> <Link to Ligand in BindingDB>
http://www.bindingdb.org/bind/chemsearch/marvin/MolStructure.jsp?monomerid=50184319

> <Link to Ligand-Target Pair in BindingDB>
http://www.bindingdb.org/jsp/dbsearch/PrimarySearch_ki.jsp?energyterm=kJ/mole&tag=pol&polymerid=4676&target=DNA+repair+protein+RAD51+homolog+1&column=ki&startPg=0&Increment=50&submit=Search

> <Link to Ligand-Target Pair in BindingDB>
http://www.bindingdb.org/jsp/dbsearch/PrimarySearch_ki.jsp?energyterm=kJ/mole&tag=r21&monomerid=50184319&enzyme=DNA+repair+protein+RAD51+homolog+1&column=ki&startPg=0&Increment=50&submit=Search

> <Ligand HET ID in PDB>


> <PDB ID(s) for Ligand-Target Complex>


> <PubChem CID of Ligand>
127052566

> <PubChem SID of Ligand>
104068713

> <ChEBI ID of Ligand>


> <ChEMBL ID of Ligand>
CHEMBL3824080

> <DrugBank ID of Ligand>


> <IUPHAR_GRAC ID of Ligand>


> <KEGG ID of Ligand>


> <ZINC ID of Ligand>
ZINC28572085

> <Number of Protein Chains in Target (bigger than 1 implies a multichain complex)>
1

> <BindingDB Target Chain Sequence>
MAMQMQLEANADTSVEEESFGPQPISRLEQCGINANDVKKLEEAGFHTVEAVAYAPKKELINIKGISEAKADKILAEAAKLVPMGFTTATEFHQRRSEIIQITTGSKELDKLLQGGIETGSITEMFGEFRTGKTQICHTLAVTCQLPIDRGGGEGKAMYIDTEGTFRPERLLAVAERYGLSGSDVLDNVAYARAFNTDHQTQLLYQASAMMVESRYALLIVDSATALYRTDYSGRGELSARQMHLARFLRMLLRLADEFGVAVVITNQVVAQVDGAAMFAADPKKPIGGNIIAHASTTRLYLRKGRGETRICKIYDSPCLPEAEAMFAINADGVGDAKD

> <PDB ID(s) of Target Chain>
1N0W,5JZC,5NP7,5NWL,8BQ2,8BR2,8BSC

> <UniProt (SwissProt) Recommended Name of Target Chain>
DNA repair protein RAD51 homolog 1

> <UniProt (SwissProt) Entry Name of Target Chain>
RAD51_HUMAN

> <UniProt (SwissProt) Primary ID of Target Chain>
Q06609

> <UniProt (SwissProt) Secondary ID(s) of Target Chain>
B0FXP0 B2R8T6 Q6FHX9 Q6ZNA8 Q9BV60

> <UniProt (SwissProt) Alternative ID(s) of Target Chain>


> <UniProt (TrEMBL) Submitted Name of Target Chain>


> <UniProt (TrEMBL) Entry Name of Target Chain>


> <UniProt (TrEMBL) Primary ID of Target Chain>


> <UniProt (TrEMBL) Secondary ID(s) of Target Chain>


> <UniProt (TrEMBL) Alternative ID(s) of Target Chain>


$$$$

  SciTegic12211613292D

 22 25  0  0  0  0            999 V2000
    5.8267   -3.6371    0.0000 C   0  0
    4.5254   -4.3830    0.0000 C   0  0
    3.2287   -3.6290    0.0000 C   0  0
    3.2335   -2.1297    0.0000 C   0  0
    4.5347   -1.3830    0.0000 C   0  0
    5.8314   -2.1371    0.0000 C   0  0
    0.6426    0.8996    0.0000 N   0  0
    1.9460    0.1469    0.0000 C   0  0
    1.9460   -1.3585    0.0000 C   0  0
    0.6426   -2.0562    0.0000 N   0  0
   -0.6609   -1.3585    0.0000 C   0  0
   -1.9460   -2.0562    0.0000 C   0  0
   -3.2678   -1.3585    0.0000 C   0  0
   -3.2678    0.1469    0.0000 C   0  0
   -1.9460    0.8996    0.0000 C   0  0
   -0.6609    0.1469    0.0000 C   0  0
    3.0843    1.1566    0.0000 C   0  0
    2.4601    2.5335    0.0000 C   0  0
    0.9547    2.3683    0.0000 C   0  0
    7.1257   -4.3889    0.0000 N   0  0
    8.4267   -3.6407    0.0000 C   0  0
    9.4653   -4.2418    0.0000 C   0  0
  1  2  1  0
  2  3  2  0
  3  4  1  0
  4  5  2  0
  5  6  1  0
  1  6  2  0
  7  8  1  0
  8  9  1  0
  9 10  2  0
 10 11  1  0
 11 12  1  0
 12 13  2  0
 13 14  1  0
 14 15  2  0
 15 16  1  0
  7 16  1  0
 11 16  2  0
 17 18  1  0
 18 19  2  0
  7 19  1  0
  8 17  2  0
  4  9  1  0
  1 20  1  0
 20 21  1  0
 21 22  1  0
M  END
> <From>
www.bindingDB.org

> <BindingDB Reactant_set_id>
50504694

> <Ligand InChI>
InChI=1S/C19H17N3/c1-2-20-15-11-9-14(10-12-15)19-18-8-5-13-22(18)17-7-4-3-6-16(17)21-19/h3-13,20H,2H2,1H3

> <Ligand InChI Key>
OEUMSXQHYXCNBG-UHFFFAOYSA-N

> <BindingDB MonomerID>
50184320

> <BindingDB Ligand Name>
CHEMBL3823105

> <Target Name>
DNA repair protein RAD51 homolog 1

> <Target Source Organism According to Curator or DataSource>
Homo sapiens

> <Ki (nM)>


> <IC50 (nM)>
 11100

> <Kd (nM)>


> <EC50 (nM)>


> <kon (M-1-s-1)>


> <koff (s-1)>


> <pH>


> <Temp C>


> <Curation/DataSource>
ChEMBL

> <Article DOI>
10.1021/acs.jmedchem.5b01762

> <BindingDB Entry DOI>
10.7270/Q200041Q

> <PMID>
27049177

> <PubChem AID>


> <Patent Number>


> <Authors>
Lv, W; Budke, B; Pawlowski, M; Connell, PP; Kozikowski, AP

> <Date of publication>
5/26/2016

> <Date in BindingDB>
10/1/2017

> <Institution>
University of Illinois at Chicago

> <Link to Ligand in BindingDB>
http://www.bindingdb.org/bind/chemsearch/marvin/MolStructure.jsp?monomerid=50184320

> <Link to Ligand-Target Pair in BindingDB>
http://www.bindingdb.org/jsp/dbsearch/PrimarySearch_ki.jsp?energyterm=kJ/mole&tag=pol&polymerid=4676&target=DNA+repair+protein+RAD51+homolog+1&column=ki&startPg=0&Increment=50&submit=Search

> <Link to Ligand-Target Pair in BindingDB>
http://www.bindingdb.org/jsp/dbsearch/PrimarySearch_ki.jsp?energyterm=kJ/mole&tag=r21&monomerid=50184320&enzyme=DNA+repair+protein+RAD51+homolog+1&column=ki&startPg=0&Increment=50&submit=Search

> <Ligand HET ID in PDB>


> <PDB ID(s) for Ligand-Target Complex>


> <PubChem CID of Ligand>
127052567

> <PubChem SID of Ligand>
104068714

> <ChEBI ID of Ligand>


> <ChEMBL ID of Ligand>
CHEMBL3823105

> <DrugBank ID of Ligand>


> <IUPHAR_GRAC ID of Ligand>


> <KEGG ID of Ligand>


> <ZINC ID of Ligand>
ZINC13683772

> <Number of Protein Chains in Target (bigger than 1 implies a multichain complex)>
1

> <BindingDB Target Chain Sequence>
MAMQMQLEANADTSVEEESFGPQPISRLEQCGINANDVKKLEEAGFHTVEAVAYAPKKELINIKGISEAKADKILAEAAKLVPMGFTTATEFHQRRSEIIQITTGSKELDKLLQGGIETGSITEMFGEFRTGKTQICHTLAVTCQLPIDRGGGEGKAMYIDTEGTFRPERLLAVAERYGLSGSDVLDNVAYARAFNTDHQTQLLYQASAMMVESRYALLIVDSATALYRTDYSGRGELSARQMHLARFLRMLLRLADEFGVAVVITNQVVAQVDGAAMFAADPKKPIGGNIIAHASTTRLYLRKGRGETRICKIYDSPCLPEAEAMFAINADGVGDAKD

> <PDB ID(s) of Target Chain>
1N0W,5JZC,5NP7,5NWL,8BQ2,8BR2,8BSC

> <UniProt (SwissProt) Recommended Name of Target Chain>
DNA repair protein RAD51 homolog 1

> <UniProt (SwissProt) Entry Name of Target Chain>
RAD51_HUMAN

> <UniProt (SwissProt) Primary ID of Target Chain>
Q06609

> <UniProt (SwissProt) Secondary ID(s) of Target Chain>
B0FXP0 B2R8T6 Q6FHX9 Q6ZNA8 Q9BV60

> <UniProt (SwissProt) Alternative ID(s) of Target Chain>


> <UniProt (TrEMBL) Submitted Name of Target Chain>


> <UniProt (TrEMBL) Entry Name of Target Chain>


> <UniProt (TrEMBL) Primary ID of Target Chain>


> <UniProt (TrEMBL) Secondary ID(s) of Target Chain>


> <UniProt (TrEMBL) Alternative ID(s) of Target Chain>


$$$$

  SciTegic12211613292D

 24 28  0  0  0  0            999 V2000
    5.8267   -3.6371    0.0000 C   0  0
    4.5254   -4.3830    0.0000 C   0  0
    3.2287   -3.6290    0.0000 C   0  0
    3.2335   -2.1297    0.0000 C   0  0
    4.5347   -1.3830    0.0000 C   0  0
    5.8314   -2.1371    0.0000 C   0  0
    0.6426    0.8996    0.0000 N   0  0
    1.9460    0.1469    0.0000 C   0  0
    1.9460   -1.3585    0.0000 C   0  0
    0.6426   -2.0562    0.0000 N   0  0
   -0.6609   -1.3585    0.0000 C   0  0
   -1.9460   -2.0562    0.0000 C   0  0
   -3.2678   -1.3585    0.0000 C   0  0
   -3.2678    0.1469    0.0000 C   0  0
   -1.9460    0.8996    0.0000 C   0  0
   -0.6609    0.1469    0.0000 C   0  0
    3.0843    1.1566    0.0000 C   0  0
    2.4601    2.5335    0.0000 C   0  0
    0.9547    2.3683    0.0000 C   0  0
    7.1241   -4.3915    0.0000 N   0  0
    7.2597   -5.8726    0.0000 C   0  0
    8.7264   -6.1867    0.0000 C   0  0
    9.4784   -4.8889    0.0000 C   0  0
    8.4764   -3.7726    0.0000 C   0  0
  1  2  1  0
  2  3  2  0
  3  4  1  0
  4  5  2  0
  5  6  1  0
  1  6  2  0
  7  8  1  0
  8  9  1  0
  9 10  2  0
 10 11  1  0
 11 12  1  0
 12 13  2  0
 13 14  1  0
 14 15  2  0
 15 16  1  0
  7 16  1  0
 11 16  2  0
 17 18  1  0
 18 19  2  0
  7 19  1  0
  8 17  2  0
  4  9  1  0
  1 20  1  0
 20 21  1  0
 21 22  1  0
 22 23  1  0
 23 24  1  0
 24 20  1  0
M  END
> <From>
www.bindingDB.org

> <BindingDB Reactant_set_id>
50504695

> <Ligand InChI>
InChI=1S/C21H19N3/c1-2-7-19-18(6-1)22-21(20-8-5-15-24(19)20)16-9-11-17(12-10-16)23-13-3-4-14-23/h1-2,5-12,15H,3-4,13-14H2

> <Ligand InChI Key>
WFFAXTJDCPVGTD-UHFFFAOYSA-N

> <BindingDB MonomerID>
50184321

> <BindingDB Ligand Name>
CHEMBL3823629

> <Target Name>
DNA repair protein RAD51 homolog 1

> <Target Source Organism According to Curator or DataSource>
Homo sapiens

> <Ki (nM)>


> <IC50 (nM)>
>100000

> <Kd (nM)>


> <EC50 (nM)>


> <kon (M-1-s-1)>


> <koff (s-1)>


> <pH>


> <Temp C>


> <Curation/DataSource>
ChEMBL

> <Article DOI>
10.1021/acs.jmedchem.5b01762

> <BindingDB Entry DOI>
10.7270/Q200041Q

> <PMID>
27049177

> <PubChem AID>


> <Patent Number>


> <Authors>
Lv, W; Budke, B; Pawlowski, M; Connell, PP; Kozikowski, AP

> <Date of publication>
5/26/2016

> <Date in BindingDB>
10/1/2017

> <Institution>
University of Illinois at Chicago

> <Link to Ligand in BindingDB>
http://www.bindingdb.org/bind/chemsearch/marvin/MolStructure.jsp?monomerid=50184321

> <Link to Ligand-Target Pair in BindingDB>
http://www.bindingdb.org/jsp/dbsearch/PrimarySearch_ki.jsp?energyterm=kJ/mole&tag=pol&polymerid=4676&target=DNA+repair+protein+RAD51+homolog+1&column=ki&startPg=0&Increment=50&submit=Search

> <Link to Ligand-Target Pair in BindingDB>
http://www.bindingdb.org/jsp/dbsearch/PrimarySearch_ki.jsp?energyterm=kJ/mole&tag=r21&monomerid=50184321&enzyme=DNA+repair+protein+RAD51+homolog+1&column=ki&startPg=0&Increment=50&submit=Search

> <Ligand HET ID in PDB>


> <PDB ID(s) for Ligand-Target Complex>


> <PubChem CID of Ligand>
127052568

> <PubChem SID of Ligand>
104068715

> <ChEBI ID of Ligand>


> <ChEMBL ID of Ligand>
CHEMBL3823629

> <DrugBank ID of Ligand>


> <IUPHAR_GRAC ID of Ligand>


> <KEGG ID of Ligand>


> <ZINC ID of Ligand>
ZINC13683798

> <Number of Protein Chains in Target (bigger than 1 implies a multichain complex)>
1

> <BindingDB Target Chain Sequence>
MAMQMQLEANADTSVEEESFGPQPISRLEQCGINANDVKKLEEAGFHTVEAVAYAPKKELINIKGISEAKADKILAEAAKLVPMGFTTATEFHQRRSEIIQITTGSKELDKLLQGGIETGSITEMFGEFRTGKTQICHTLAVTCQLPIDRGGGEGKAMYIDTEGTFRPERLLAVAERYGLSGSDVLDNVAYARAFNTDHQTQLLYQASAMMVESRYALLIVDSATALYRTDYSGRGELSARQMHLARFLRMLLRLADEFGVAVVITNQVVAQVDGAAMFAADPKKPIGGNIIAHASTTRLYLRKGRGETRICKIYDSPCLPEAEAMFAINADGVGDAKD

> <PDB ID(s) of Target Chain>
1N0W,5JZC,5NP7,5NWL,8BQ2,8BR2,8BSC

> <UniProt (SwissProt) Recommended Name of Target Chain>
DNA repair protein RAD51 homolog 1

> <UniProt (SwissProt) Entry Name of Target Chain>
RAD51_HUMAN

> <UniProt (SwissProt) Primary ID of Target Chain>
Q06609

> <UniProt (SwissProt) Secondary ID(s) of Target Chain>
B0FXP0 B2R8T6 Q6FHX9 Q6ZNA8 Q9BV60

> <UniProt (SwissProt) Alternative ID(s) of Target Chain>


> <UniProt (TrEMBL) Submitted Name of Target Chain>


> <UniProt (TrEMBL) Entry Name of Target Chain>


> <UniProt (TrEMBL) Primary ID of Target Chain>


> <UniProt (TrEMBL) Secondary ID(s) of Target Chain>


> <UniProt (TrEMBL) Alternative ID(s) of Target Chain>


$$$$

  SciTegic12211613292D

 25 29  0  0  0  0            999 V2000
    5.8267   -3.6371    0.0000 C   0  0
    4.5254   -4.3830    0.0000 C   0  0
    3.2287   -3.6290    0.0000 C   0  0
    3.2335   -2.1297    0.0000 C   0  0
    4.5347   -1.3830    0.0000 C   0  0
    5.8314   -2.1371    0.0000 C   0  0
    0.6426    0.8996    0.0000 N   0  0
    1.9460    0.1469    0.0000 C   0  0
    1.9460   -1.3585    0.0000 C   0  0
    0.6426   -2.0562    0.0000 N   0  0
   -0.6609   -1.3585    0.0000 C   0  0
   -1.9460   -2.0562    0.0000 C   0  0
   -3.2678   -1.3585    0.0000 C   0  0
   -3.2678    0.1469    0.0000 C   0  0
   -1.9460    0.8996    0.0000 C   0  0
   -0.6609    0.1469    0.0000 C   0  0
    3.0843    1.1566    0.0000 C   0  0
    2.4601    2.5335    0.0000 C   0  0
    0.9547    2.3683    0.0000 C   0  0
    7.1241   -4.3915    0.0000 N   0  0
    7.1219   -5.8916    0.0000 C   0  0
    8.4198   -6.6436    0.0000 C   0  0
    9.7200   -5.8956    0.0000 O   0  0
    9.7223   -4.3956    0.0000 C   0  0
    8.4244   -3.6436    0.0000 C   0  0
  1  2  1  0
  2  3  2  0
  3  4  1  0
  4  5  2  0
  5  6  1  0
  1  6  2  0
  7  8  1  0
  8  9  1  0
  9 10  2  0
 10 11  1  0
 11 12  1  0
 12 13  2  0
 13 14  1  0
 14 15  2  0
 15 16  1  0
  7 16  1  0
 11 16  2  0
 17 18  1  0
 18 19  2  0
  7 19  1  0
  8 17  2  0
  4  9  1  0
  1 20  1  0
 20 21  1  0
 20 25  1  0
 21 22  1  0
 22 23  1  0
 23 24  1  0
 24 25  1  0
M  END
> <From>
www.bindingDB.org

> <BindingDB Reactant_set_id>
50504696

> <Ligand InChI>
InChI=1S/C21H19N3O/c1-2-5-19-18(4-1)22-21(20-6-3-11-24(19)20)16-7-9-17(10-8-16)23-12-14-25-15-13-23/h1-11H,12-15H2

> <Ligand InChI Key>
BWGHMWGOMCFBCW-UHFFFAOYSA-N

> <BindingDB MonomerID>
50184322

> <BindingDB Ligand Name>
CHEMBL3822575

> <Target Name>
DNA repair protein RAD51 homolog 1

> <Target Source Organism According to Curator or DataSource>
Homo sapiens

> <Ki (nM)>


> <IC50 (nM)>
 27200

> <Kd (nM)>


> <EC50 (nM)>


> <kon (M-1-s-1)>


> <koff (s-1)>


> <pH>


> <Temp C>


> <Curation/DataSource>
ChEMBL

> <Article DOI>
10.1021/acs.jmedchem.5b01762

> <BindingDB Entry DOI>
10.7270/Q200041Q

> <PMID>
27049177

> <PubChem AID>


> <Patent Number>


> <Authors>
Lv, W; Budke, B; Pawlowski, M; Connell, PP; Kozikowski, AP

> <Date of publication>
5/26/2016

> <Date in BindingDB>
10/1/2017

> <Institution>
University of Illinois at Chicago

> <Link to Ligand in BindingDB>
http://www.bindingdb.org/bind/chemsearch/marvin/MolStructure.jsp?monomerid=50184322

> <Link to Ligand-Target Pair in BindingDB>
http://www.bindingdb.org/jsp/dbsearch/PrimarySearch_ki.jsp?energyterm=kJ/mole&tag=pol&polymerid=4676&target=DNA+repair+protein+RAD51+homolog+1&column=ki&startPg=0&Increment=50&submit=Search

> <Link to Ligand-Target Pair in BindingDB>
http://www.bindingdb.org/jsp/dbsearch/PrimarySearch_ki.jsp?energyterm=kJ/mole&tag=r21&monomerid=50184322&enzyme=DNA+repair+protein+RAD51+homolog+1&column=ki&startPg=0&Increment=50&submit=Search

> <Ligand HET ID in PDB>


> <PDB ID(s) for Ligand-Target Complex>


> <PubChem CID of Ligand>
127052027

> <PubChem SID of Ligand>
104068716

> <ChEBI ID of Ligand>


> <ChEMBL ID of Ligand>
CHEMBL3822575

> <DrugBank ID of Ligand>


> <IUPHAR_GRAC ID of Ligand>


> <KEGG ID of Ligand>


> <ZINC ID of Ligand>
ZINC13683802

> <Number of Protein Chains in Target (bigger than 1 implies a multichain complex)>
1

> <BindingDB Target Chain Sequence>
MAMQMQLEANADTSVEEESFGPQPISRLEQCGINANDVKKLEEAGFHTVEAVAYAPKKELINIKGISEAKADKILAEAAKLVPMGFTTATEFHQRRSEIIQITTGSKELDKLLQGGIETGSITEMFGEFRTGKTQICHTLAVTCQLPIDRGGGEGKAMYIDTEGTFRPERLLAVAERYGLSGSDVLDNVAYARAFNTDHQTQLLYQASAMMVESRYALLIVDSATALYRTDYSGRGELSARQMHLARFLRMLLRLADEFGVAVVITNQVVAQVDGAAMFAADPKKPIGGNIIAHASTTRLYLRKGRGETRICKIYDSPCLPEAEAMFAINADGVGDAKD

> <PDB ID(s) of Target Chain>
1N0W,5JZC,5NP7,5NWL,8BQ2,8BR2,8BSC

> <UniProt (SwissProt) Recommended Name of Target Chain>
DNA repair protein RAD51 homolog 1

> <UniProt (SwissProt) Entry Name of Target Chain>
RAD51_HUMAN

> <UniProt (SwissProt) Primary ID of Target Chain>
Q06609

> <UniProt (SwissProt) Secondary ID(s) of Target Chain>
B0FXP0 B2R8T6 Q6FHX9 Q6ZNA8 Q9BV60

> <UniProt (SwissProt) Alternative ID(s) of Target Chain>


> <UniProt (TrEMBL) Submitted Name of Target Chain>


> <UniProt (TrEMBL) Entry Name of Target Chain>


> <UniProt (TrEMBL) Primary ID of Target Chain>


> <UniProt (TrEMBL) Secondary ID(s) of Target Chain>


> <UniProt (TrEMBL) Alternative ID(s) of Target Chain>


$$$$

  SciTegic12211613302D

 19 22  0  0  0  0            999 V2000
    5.8267   -3.6371    0.0000 C   0  0
    4.5254   -4.3830    0.0000 N   0  0
    3.2287   -3.6290    0.0000 C   0  0
    3.2335   -2.1297    0.0000 C   0  0
    4.5347   -1.3830    0.0000 C   0  0
    5.8314   -2.1371    0.0000 C   0  0
    0.6426    0.8996    0.0000 N   0  0
    1.9460    0.1469    0.0000 C   0  0
    1.9460   -1.3585    0.0000 C   0  0
    0.6426   -2.0562    0.0000 N   0  0
   -0.6609   -1.3585    0.0000 C   0  0
   -1.9460   -2.0562    0.0000 C   0  0
   -3.2678   -1.3585    0.0000 C   0  0
   -3.2678    0.1469    0.0000 C   0  0
   -1.9460    0.8996    0.0000 C   0  0
   -0.6609    0.1469    0.0000 C   0  0
    3.0843    1.1566    0.0000 C   0  0
    2.4601    2.5335    0.0000 C   0  0
    0.9547    2.3683    0.0000 C   0  0
  1  2  1  0
  2  3  2  0
  3  4  1  0
  4  5  2  0
  5  6  1  0
  1  6  2  0
  7  8  1  0
  8  9  1  0
  9 10  2  0
 10 11  1  0
 11 12  1  0
 12 13  2  0
 13 14  1  0
 14 15  2  0
 15 16  1  0
  7 16  1  0
 11 16  2  0
 17 18  1  0
 18 19  2  0
  7 19  1  0
  8 17  2  0
  4  9  1  0
M  END
> <From>
www.bindingDB.org

> <BindingDB Reactant_set_id>
50504697

> <Ligand InChI>
InChI=1S/C16H11N3/c1-2-7-14-13(6-1)18-16(12-5-3-9-17-11-12)15-8-4-10-19(14)15/h1-11H

> <Ligand InChI Key>
YYLFSLFSCWVKLI-UHFFFAOYSA-N

> <BindingDB MonomerID>
50184333

> <BindingDB Ligand Name>
CHEMBL3823966

> <Target Name>
DNA repair protein RAD51 homolog 1

> <Target Source Organism According to Curator or DataSource>
Homo sapiens

> <Ki (nM)>


> <IC50 (nM)>
 71700

> <Kd (nM)>


> <EC50 (nM)>


> <kon (M-1-s-1)>


> <koff (s-1)>


> <pH>


> <Temp C>


> <Curation/DataSource>
ChEMBL

> <Article DOI>
10.1021/acs.jmedchem.5b01762

> <BindingDB Entry DOI>
10.7270/Q200041Q

> <PMID>
27049177

> <PubChem AID>


> <Patent Number>


> <Authors>
Lv, W; Budke, B; Pawlowski, M; Connell, PP; Kozikowski, AP

> <Date of publication>
5/26/2016

> <Date in BindingDB>
10/1/2017

> <Institution>
University of Illinois at Chicago

> <Link to Ligand in BindingDB>
http://www.bindingdb.org/bind/chemsearch/marvin/MolStructure.jsp?monomerid=50184333

> <Link to Ligand-Target Pair in BindingDB>
http://www.bindingdb.org/jsp/dbsearch/PrimarySearch_ki.jsp?energyterm=kJ/mole&tag=pol&polymerid=4676&target=DNA+repair+protein+RAD51+homolog+1&column=ki&startPg=0&Increment=50&submit=Search

> <Link to Ligand-Target Pair in BindingDB>
http://www.bindingdb.org/jsp/dbsearch/PrimarySearch_ki.jsp?energyterm=kJ/mole&tag=r21&monomerid=50184333&enzyme=DNA+repair+protein+RAD51+homolog+1&column=ki&startPg=0&Increment=50&submit=Search

> <Ligand HET ID in PDB>
7M5

> <PDB ID(s) for Ligand-Target Complex>
5MFP

> <PubChem CID of Ligand>
60148051

> <PubChem SID of Ligand>
346550357

> <ChEBI ID of Ligand>


> <ChEMBL ID of Ligand>
CHEMBL3823966

> <DrugBank ID of Ligand>


> <IUPHAR_GRAC ID of Ligand>


> <KEGG ID of Ligand>


> <ZINC ID of Ligand>


> <Number of Protein Chains in Target (bigger than 1 implies a multichain complex)>
1

> <BindingDB Target Chain Sequence>
MAMQMQLEANADTSVEEESFGPQPISRLEQCGINANDVKKLEEAGFHTVEAVAYAPKKELINIKGISEAKADKILAEAAKLVPMGFTTATEFHQRRSEIIQITTGSKELDKLLQGGIETGSITEMFGEFRTGKTQICHTLAVTCQLPIDRGGGEGKAMYIDTEGTFRPERLLAVAERYGLSGSDVLDNVAYARAFNTDHQTQLLYQASAMMVESRYALLIVDSATALYRTDYSGRGELSARQMHLARFLRMLLRLADEFGVAVVITNQVVAQVDGAAMFAADPKKPIGGNIIAHASTTRLYLRKGRGETRICKIYDSPCLPEAEAMFAINADGVGDAKD

> <PDB ID(s) of Target Chain>
1N0W,5JZC,5NP7,5NWL,8BQ2,8BR2,8BSC

> <UniProt (SwissProt) Recommended Name of Target Chain>
DNA repair protein RAD51 homolog 1

> <UniProt (SwissProt) Entry Name of Target Chain>
RAD51_HUMAN

> <UniProt (SwissProt) Primary ID of Target Chain>
Q06609

> <UniProt (SwissProt) Secondary ID(s) of Target Chain>
B0FXP0 B2R8T6 Q6FHX9 Q6ZNA8 Q9BV60

> <UniProt (SwissProt) Alternative ID(s) of Target Chain>


> <UniProt (TrEMBL) Submitted Name of Target Chain>


> <UniProt (TrEMBL) Entry Name of Target Chain>


> <UniProt (TrEMBL) Primary ID of Target Chain>


> <UniProt (TrEMBL) Secondary ID(s) of Target Chain>


> <UniProt (TrEMBL) Alternative ID(s) of Target Chain>


$$$$

  SciTegic12211613292D

 22 25  0  0  0  0            999 V2000
    5.8267   -3.6371    0.0000 C   0  0
    4.5254   -4.3830    0.0000 C   0  0
    3.2287   -3.6290    0.0000 C   0  0
    3.2335   -2.1297    0.0000 C   0  0
    4.5347   -1.3830    0.0000 C   0  0
    5.8314   -2.1371    0.0000 C   0  0
    0.6426    0.8996    0.0000 N   0  0
    1.9460    0.1469    0.0000 C   0  0
    1.9460   -1.3585    0.0000 C   0  0
    0.6426   -2.0562    0.0000 N   0  0
   -0.6609   -1.3585    0.0000 C   0  0
   -1.9460   -2.0562    0.0000 C   0  0
   -3.2678   -1.3585    0.0000 C   0  0
   -3.2678    0.1469    0.0000 C   0  0
   -1.9460    0.8996    0.0000 C   0  0
   -0.6609    0.1469    0.0000 C   0  0
    3.0843    1.1566    0.0000 C   0  0
    2.4601    2.5335    0.0000 C   0  0
    0.9547    2.3683    0.0000 C   0  0
    7.1257   -4.3889    0.0000 N   0  0
    8.4267   -3.6407    0.0000 C   0  0
    9.4653   -4.2418    0.0000 C   0  0
  1  2  1  0
  2  3  2  0
  3  4  1  0
  4  5  2  0
  5  6  1  0
  1  6  2  0
  7  8  1  0
  8  9  1  0
  9 10  2  0
 10 11  1  0
 11 12  1  0
 12 13  2  0
 13 14  1  0
 14 15  2  0
 15 16  1  0
  7 16  1  0
 11 16  2  0
 17 18  1  0
 18 19  2  0
  7 19  1  0
  8 17  2  0
  4  9  1  0
  1 20  1  0
 20 21  1  0
 21 22  1  0
M  END
> <From>
www.bindingDB.org

> <BindingDB Reactant_set_id>
50504698

> <Ligand InChI>
InChI=1S/C19H17N3/c1-2-20-15-11-9-14(10-12-15)19-18-8-5-13-22(18)17-7-4-3-6-16(17)21-19/h3-13,20H,2H2,1H3

> <Ligand InChI Key>
OEUMSXQHYXCNBG-UHFFFAOYSA-N

> <BindingDB MonomerID>
50184320

> <BindingDB Ligand Name>
CHEMBL3823105

> <Target Name>
DNA repair protein RAD51 homolog 1

> <Target Source Organism According to Curator or DataSource>
Homo sapiens

> <Ki (nM)>


> <IC50 (nM)>
 3000

> <Kd (nM)>


> <EC50 (nM)>


> <kon (M-1-s-1)>


> <koff (s-1)>


> <pH>


> <Temp C>


> <Curation/DataSource>
ChEMBL

> <Article DOI>
10.1021/acs.jmedchem.5b01762

> <BindingDB Entry DOI>
10.7270/Q200041Q

> <PMID>
27049177

> <PubChem AID>


> <Patent Number>


> <Authors>
Lv, W; Budke, B; Pawlowski, M; Connell, PP; Kozikowski, AP

> <Date of publication>
5/26/2016

> <Date in BindingDB>
10/1/2017

> <Institution>
University of Illinois at Chicago

> <Link to Ligand in BindingDB>
http://www.bindingdb.org/bind/chemsearch/marvin/MolStructure.jsp?monomerid=50184320

> <Link to Ligand-Target Pair in BindingDB>
http://www.bindingdb.org/jsp/dbsearch/PrimarySearch_ki.jsp?energyterm=kJ/mole&tag=pol&polymerid=4676&target=DNA+repair+protein+RAD51+homolog+1&column=ki&startPg=0&Increment=50&submit=Search

> <Link to Ligand-Target Pair in BindingDB>
http://www.bindingdb.org/jsp/dbsearch/PrimarySearch_ki.jsp?energyterm=kJ/mole&tag=r21&monomerid=50184320&enzyme=DNA+repair+protein+RAD51+homolog+1&column=ki&startPg=0&Increment=50&submit=Search

> <Ligand HET ID in PDB>


> <PDB ID(s) for Ligand-Target Complex>


> <PubChem CID of Ligand>
127052567

> <PubChem SID of Ligand>
104068714

> <ChEBI ID of Ligand>


> <ChEMBL ID of Ligand>
CHEMBL3823105

> <DrugBank ID of Ligand>


> <IUPHAR_GRAC ID of Ligand>


> <KEGG ID of Ligand>


> <ZINC ID of Ligand>
ZINC13683772

> <Number of Protein Chains in Target (bigger than 1 implies a multichain complex)>
1

> <BindingDB Target Chain Sequence>
MAMQMQLEANADTSVEEESFGPQPISRLEQCGINANDVKKLEEAGFHTVEAVAYAPKKELINIKGISEAKADKILAEAAKLVPMGFTTATEFHQRRSEIIQITTGSKELDKLLQGGIETGSITEMFGEFRTGKTQICHTLAVTCQLPIDRGGGEGKAMYIDTEGTFRPERLLAVAERYGLSGSDVLDNVAYARAFNTDHQTQLLYQASAMMVESRYALLIVDSATALYRTDYSGRGELSARQMHLARFLRMLLRLADEFGVAVVITNQVVAQVDGAAMFAADPKKPIGGNIIAHASTTRLYLRKGRGETRICKIYDSPCLPEAEAMFAINADGVGDAKD

> <PDB ID(s) of Target Chain>
1N0W,5JZC,5NP7,5NWL,8BQ2,8BR2,8BSC

> <UniProt (SwissProt) Recommended Name of Target Chain>
DNA repair protein RAD51 homolog 1

> <UniProt (SwissProt) Entry Name of Target Chain>
RAD51_HUMAN

> <UniProt (SwissProt) Primary ID of Target Chain>
Q06609

> <UniProt (SwissProt) Secondary ID(s) of Target Chain>
B0FXP0 B2R8T6 Q6FHX9 Q6ZNA8 Q9BV60

> <UniProt (SwissProt) Alternative ID(s) of Target Chain>


> <UniProt (TrEMBL) Submitted Name of Target Chain>


> <UniProt (TrEMBL) Entry Name of Target Chain>


> <UniProt (TrEMBL) Primary ID of Target Chain>


> <UniProt (TrEMBL) Secondary ID(s) of Target Chain>


> <UniProt (TrEMBL) Alternative ID(s) of Target Chain>


$$$$

  SciTegic12211613302D

 19 22  0  0  0  0            999 V2000
    5.8267   -3.6371    0.0000 N   0  0
    4.5254   -4.3830    0.0000 C   0  0
    3.2287   -3.6290    0.0000 C   0  0
    3.2335   -2.1297    0.0000 C   0  0
    4.5347   -1.3830    0.0000 C   0  0
    5.8314   -2.1371    0.0000 C   0  0
    0.6426    0.8996    0.0000 N   0  0
    1.9460    0.1469    0.0000 C   0  0
    1.9460   -1.3585    0.0000 C   0  0
    0.6426   -2.0562    0.0000 N   0  0
   -0.6609   -1.3585    0.0000 C   0  0
   -1.9460   -2.0562    0.0000 C   0  0
   -3.2678   -1.3585    0.0000 C   0  0
   -3.2678    0.1469    0.0000 C   0  0
   -1.9460    0.8996    0.0000 C   0  0
   -0.6609    0.1469    0.0000 C   0  0
    3.0843    1.1566    0.0000 C   0  0
    2.4601    2.5335    0.0000 C   0  0
    0.9547    2.3683    0.0000 C   0  0
  1  2  1  0
  2  3  2  0
  3  4  1  0
  4  5  2  0
  5  6  1  0
  1  6  2  0
  7  8  1  0
  8  9  1  0
  9 10  2  0
 10 11  1  0
 11 12  1  0
 12 13  2  0
 13 14  1  0
 14 15  2  0
 15 16  1  0
  7 16  1  0
 11 16  2  0
 17 18  1  0
 18 19  2  0
  7 19  1  0
  8 17  2  0
  4  9  1  0
M  END
> <From>
www.bindingDB.org

> <BindingDB Reactant_set_id>
50504699

> <Ligand InChI>
InChI=1S/C16H11N3/c1-2-5-14-13(4-1)18-16(12-7-9-17-10-8-12)15-6-3-11-19(14)15/h1-11H

> <Ligand InChI Key>
OLVKAAAANOJZJE-UHFFFAOYSA-N

> <BindingDB MonomerID>
50184334

> <BindingDB Ligand Name>
CHEMBL3822942

> <Target Name>
DNA repair protein RAD51 homolog 1

> <Target Source Organism According to Curator or DataSource>
Homo sapiens

> <Ki (nM)>


> <IC50 (nM)>
 79400

> <Kd (nM)>


> <EC50 (nM)>


> <kon (M-1-s-1)>


> <koff (s-1)>


> <pH>


> <Temp C>


> <Curation/DataSource>
ChEMBL

> <Article DOI>
10.1021/acs.jmedchem.5b01762

> <BindingDB Entry DOI>
10.7270/Q200041Q

> <PMID>
27049177

> <PubChem AID>


> <Patent Number>


> <Authors>
Lv, W; Budke, B; Pawlowski, M; Connell, PP; Kozikowski, AP

> <Date of publication>
5/26/2016

> <Date in BindingDB>
10/1/2017

> <Institution>
University of Illinois at Chicago

> <Link to Ligand in BindingDB>
http://www.bindingdb.org/bind/chemsearch/marvin/MolStructure.jsp?monomerid=50184334

> <Link to Ligand-Target Pair in BindingDB>
http://www.bindingdb.org/jsp/dbsearch/PrimarySearch_ki.jsp?energyterm=kJ/mole&tag=pol&polymerid=4676&target=DNA+repair+protein+RAD51+homolog+1&column=ki&startPg=0&Increment=50&submit=Search

> <Link to Ligand-Target Pair in BindingDB>
http://www.bindingdb.org/jsp/dbsearch/PrimarySearch_ki.jsp?energyterm=kJ/mole&tag=r21&monomerid=50184334&enzyme=DNA+repair+protein+RAD51+homolog+1&column=ki&startPg=0&Increment=50&submit=Search

> <Ligand HET ID in PDB>


> <PDB ID(s) for Ligand-Target Complex>


> <PubChem CID of Ligand>
60148052

> <PubChem SID of Ligand>
346550358

> <ChEBI ID of Ligand>


> <ChEMBL ID of Ligand>
CHEMBL3822942

> <DrugBank ID of Ligand>


> <IUPHAR_GRAC ID of Ligand>


> <KEGG ID of Ligand>


> <ZINC ID of Ligand>


> <Number of Protein Chains in Target (bigger than 1 implies a multichain complex)>
1

> <BindingDB Target Chain Sequence>
MAMQMQLEANADTSVEEESFGPQPISRLEQCGINANDVKKLEEAGFHTVEAVAYAPKKELINIKGISEAKADKILAEAAKLVPMGFTTATEFHQRRSEIIQITTGSKELDKLLQGGIETGSITEMFGEFRTGKTQICHTLAVTCQLPIDRGGGEGKAMYIDTEGTFRPERLLAVAERYGLSGSDVLDNVAYARAFNTDHQTQLLYQASAMMVESRYALLIVDSATALYRTDYSGRGELSARQMHLARFLRMLLRLADEFGVAVVITNQVVAQVDGAAMFAADPKKPIGGNIIAHASTTRLYLRKGRGETRICKIYDSPCLPEAEAMFAINADGVGDAKD

> <PDB ID(s) of Target Chain>
1N0W,5JZC,5NP7,5NWL,8BQ2,8BR2,8BSC

> <UniProt (SwissProt) Recommended Name of Target Chain>
DNA repair protein RAD51 homolog 1

> <UniProt (SwissProt) Entry Name of Target Chain>
RAD51_HUMAN

> <UniProt (SwissProt) Primary ID of Target Chain>
Q06609

> <UniProt (SwissProt) Secondary ID(s) of Target Chain>
B0FXP0 B2R8T6 Q6FHX9 Q6ZNA8 Q9BV60

> <UniProt (SwissProt) Alternative ID(s) of Target Chain>


> <UniProt (TrEMBL) Submitted Name of Target Chain>


> <UniProt (TrEMBL) Entry Name of Target Chain>


> <UniProt (TrEMBL) Primary ID of Target Chain>


> <UniProt (TrEMBL) Secondary ID(s) of Target Chain>


> <UniProt (TrEMBL) Alternative ID(s) of Target Chain>


$$$$

          11290715552D 1   1.00000     0.00000     0

 19 22  0     0  0            999 V2000
   12.3907  -12.0049    0.0000 C   0  0  0  0  0  0           0  0  0
   12.3896  -12.8315    0.0000 C   0  0  0  0  0  0           0  0  0
   13.1037  -13.2440    0.0000 C   0  0  0  0  0  0           0  0  0
   13.1019  -11.5926    0.0000 C   0  0  0  0  0  0           0  0  0
   13.8166  -12.0013    0.0000 C   0  0  0  0  0  0           0  0  0
   13.8173  -12.8273    0.0000 C   0  0  0  0  0  0           0  0  0
   14.5319  -13.2379    0.0000 N   0  0  0  0  0  0           0  0  0
   15.2463  -12.8235    0.0000 C   0  0  0  0  0  0           0  0  0
   14.5263  -11.5875    0.0000 N   0  0  3  0  0  0           0  0  0
   15.2421  -11.9978    0.0000 C   0  0  0  0  0  0           0  0  0
   15.8534  -11.4437    0.0000 C   0  0  0  0  0  0           0  0  0
   15.5153  -10.6910    0.0000 C   0  0  0  0  0  0           0  0  0
   14.6952  -10.7801    0.0000 C   0  0  0  0  0  0           0  0  0
   15.9615  -13.2332    0.0000 C   0  0  0  0  0  0           0  0  0
   15.9602  -14.0582    0.0000 C   0  0  0  0  0  0           0  0  0
   16.6713  -14.4677    0.0000 C   0  0  0  0  0  0           0  0  0
   17.3861  -14.0566    0.0000 C   0  0  0  0  0  0           0  0  0
   17.3852  -13.2314    0.0000 C   0  0  0  0  0  0           0  0  0
   16.6695  -12.8174    0.0000 C   0  0  0  0  0  0           0  0  0
  9 10  1  0     0  0
  5  4  2  0     0  0
  4  1  1  0     0  0
  2  3  1  0     0  0
  5  6  1  0     0  0
 10 11  2  0     0  0
 11 12  1  0     0  0
 12 13  2  0     0  0
 13  9  1  0     0  0
  3  6  2  0     0  0
  8 14  1  0     0  0
 14 15  1  0     0  0
  6  7  1  0     0  0
  1  2  2  0     0  0
  7  8  2  0     0  0
  8 10  1  0     0  0
  9  5  1  0     0  0
 14 19  2  0     0  0
 15 16  1  0     0  0
 16 17  1  0     0  0
 17 18  1  0     0  0
 18 19  1  0     0  0
M  END
> <From>
www.bindingDB.org

> <BindingDB Reactant_set_id>
50504700

> <Ligand InChI>
InChI=1S/C17H16N2/c1-2-7-13(8-3-1)17-16-11-6-12-19(16)15-10-5-4-9-14(15)18-17/h4-7,9-12H,1-3,8H2

> <Ligand InChI Key>
VDRDKRWVVYFWJE-UHFFFAOYSA-N

> <BindingDB MonomerID>
50184335

> <BindingDB Ligand Name>
CHEMBL224458

> <Target Name>
DNA repair protein RAD51 homolog 1

> <Target Source Organism According to Curator or DataSource>
Homo sapiens

> <Ki (nM)>


> <IC50 (nM)>
>100000

> <Kd (nM)>


> <EC50 (nM)>


> <kon (M-1-s-1)>


> <koff (s-1)>


> <pH>


> <Temp C>


> <Curation/DataSource>
ChEMBL

> <Article DOI>
10.1021/acs.jmedchem.5b01762

> <BindingDB Entry DOI>
10.7270/Q200041Q

> <PMID>
27049177

> <PubChem AID>


> <Patent Number>


> <Authors>
Lv, W; Budke, B; Pawlowski, M; Connell, PP; Kozikowski, AP

> <Date of publication>
5/26/2016

> <Date in BindingDB>
10/1/2017

> <Institution>
University of Illinois at Chicago

> <Link to Ligand in BindingDB>
http://www.bindingdb.org/bind/chemsearch/marvin/MolStructure.jsp?monomerid=50184335

> <Link to Ligand-Target Pair in BindingDB>
http://www.bindingdb.org/jsp/dbsearch/PrimarySearch_ki.jsp?energyterm=kJ/mole&tag=pol&polymerid=4676&target=DNA+repair+protein+RAD51+homolog+1&column=ki&startPg=0&Increment=50&submit=Search

> <Link to Ligand-Target Pair in BindingDB>
http://www.bindingdb.org/jsp/dbsearch/PrimarySearch_ki.jsp?energyterm=kJ/mole&tag=r21&monomerid=50184335&enzyme=DNA+repair+protein+RAD51+homolog+1&column=ki&startPg=0&Increment=50&submit=Search

> <Ligand HET ID in PDB>


> <PDB ID(s) for Ligand-Target Complex>


> <PubChem CID of Ligand>
44422142

> <PubChem SID of Ligand>
346550359

> <ChEBI ID of Ligand>


> <ChEMBL ID of Ligand>
CHEMBL224458

> <DrugBank ID of Ligand>


> <IUPHAR_GRAC ID of Ligand>


> <KEGG ID of Ligand>


> <ZINC ID of Ligand>


> <Number of Protein Chains in Target (bigger than 1 implies a multichain complex)>
1

> <BindingDB Target Chain Sequence>
MAMQMQLEANADTSVEEESFGPQPISRLEQCGINANDVKKLEEAGFHTVEAVAYAPKKELINIKGISEAKADKILAEAAKLVPMGFTTATEFHQRRSEIIQITTGSKELDKLLQGGIETGSITEMFGEFRTGKTQICHTLAVTCQLPIDRGGGEGKAMYIDTEGTFRPERLLAVAERYGLSGSDVLDNVAYARAFNTDHQTQLLYQASAMMVESRYALLIVDSATALYRTDYSGRGELSARQMHLARFLRMLLRLADEFGVAVVITNQVVAQVDGAAMFAADPKKPIGGNIIAHASTTRLYLRKGRGETRICKIYDSPCLPEAEAMFAINADGVGDAKD

> <PDB ID(s) of Target Chain>
1N0W,5JZC,5NP7,5NWL,8BQ2,8BR2,8BSC

> <UniProt (SwissProt) Recommended Name of Target Chain>
DNA repair protein RAD51 homolog 1

> <UniProt (SwissProt) Entry Name of Target Chain>
RAD51_HUMAN

> <UniProt (SwissProt) Primary ID of Target Chain>
Q06609

> <UniProt (SwissProt) Secondary ID(s) of Target Chain>
B0FXP0 B2R8T6 Q6FHX9 Q6ZNA8 Q9BV60

> <UniProt (SwissProt) Alternative ID(s) of Target Chain>


> <UniProt (TrEMBL) Submitted Name of Target Chain>


> <UniProt (TrEMBL) Entry Name of Target Chain>


> <UniProt (TrEMBL) Primary ID of Target Chain>


> <UniProt (TrEMBL) Secondary ID(s) of Target Chain>


> <UniProt (TrEMBL) Alternative ID(s) of Target Chain>


$$$$

  SciTegic12211613302D

 23 27  0  0  0  0            999 V2000
    5.8143   -3.6481    0.0000 C   0  0
    5.8355   -2.1353    0.0000 C   0  0
    4.5449   -1.3762    0.0000 C   0  0
    3.2335   -2.1297    0.0000 C   0  0
    0.6426    0.8996    0.0000 N   0  0
    1.9460    0.1469    0.0000 C   0  0
    1.9460   -1.3585    0.0000 C   0  0
    0.6426   -2.0562    0.0000 N   0  0
   -0.6609   -1.3585    0.0000 C   0  0
   -1.9460   -2.0562    0.0000 C   0  0
   -3.2678   -1.3585    0.0000 C   0  0
   -3.2678    0.1469    0.0000 C   0  0
   -1.9460    0.8996    0.0000 C   0  0
   -0.6609    0.1469    0.0000 C   0  0
    3.0843    1.1566    0.0000 C   0  0
    2.4601    2.5335    0.0000 C   0  0
    0.9547    2.3683    0.0000 C   0  0
    4.5117   -4.3860    0.0000 C   0  0
    3.2211   -3.6269    0.0000 C   0  0
    1.9185   -4.3648    0.0000 C   0  0
    1.9066   -5.8618    0.0000 C   0  0
    3.1971   -6.6209    0.0000 C   0  0
    4.4997   -5.8830    0.0000 C   0  0
  1  2  1  0
  2  3  2  0
  3  4  1  0
  4 19  2  0
  1 18  2  0
  5  6  1  0
  6  7  1  0
  7  8  2  0
  8  9  1  0
  9 10  1  0
 10 11  2  0
 11 12  1  0
 12 13  2  0
 13 14  1  0
  5 14  1  0
  9 14  2  0
 15 16  1  0
 16 17  2  0
  5 17  1  0
  6 15  2  0
  4  7  1  0
 18 19  1  0
 19 20  1  0
 20 21  2  0
 21 22  1  0
 22 23  2  0
 23 18  1  0
M  END
> <From>
www.bindingDB.org

> <BindingDB Reactant_set_id>
50504701

> <Ligand InChI>
InChI=1S/C21H14N2/c1-2-9-16-15(7-1)8-5-10-17(16)21-20-13-6-14-23(20)19-12-4-3-11-18(19)22-21/h1-14H

> <Ligand InChI Key>
HRLCQBWTRCGNJC-UHFFFAOYSA-N

> <BindingDB MonomerID>
50184336

> <BindingDB Ligand Name>
CHEMBL3824268

> <Target Name>
DNA repair protein RAD51 homolog 1

> <Target Source Organism According to Curator or DataSource>
Homo sapiens

> <Ki (nM)>


> <IC50 (nM)>
>100000

> <Kd (nM)>


> <EC50 (nM)>


> <kon (M-1-s-1)>


> <koff (s-1)>


> <pH>


> <Temp C>


> <Curation/DataSource>
ChEMBL

> <Article DOI>
10.1021/acs.jmedchem.5b01762

> <BindingDB Entry DOI>
10.7270/Q200041Q

> <PMID>
27049177

> <PubChem AID>


> <Patent Number>


> <Authors>
Lv, W; Budke, B; Pawlowski, M; Connell, PP; Kozikowski, AP

> <Date of publication>
5/26/2016

> <Date in BindingDB>
10/1/2017

> <Institution>
University of Illinois at Chicago

> <Link to Ligand in BindingDB>
http://www.bindingdb.org/bind/chemsearch/marvin/MolStructure.jsp?monomerid=50184336

> <Link to Ligand-Target Pair in BindingDB>
http://www.bindingdb.org/jsp/dbsearch/PrimarySearch_ki.jsp?energyterm=kJ/mole&tag=pol&polymerid=4676&target=DNA+repair+protein+RAD51+homolog+1&column=ki&startPg=0&Increment=50&submit=Search

> <Link to Ligand-Target Pair in BindingDB>
http://www.bindingdb.org/jsp/dbsearch/PrimarySearch_ki.jsp?energyterm=kJ/mole&tag=r21&monomerid=50184336&enzyme=DNA+repair+protein+RAD51+homolog+1&column=ki&startPg=0&Increment=50&submit=Search

> <Ligand HET ID in PDB>


> <PDB ID(s) for Ligand-Target Complex>


> <PubChem CID of Ligand>
127050498

> <PubChem SID of Ligand>
346550360

> <ChEBI ID of Ligand>


> <ChEMBL ID of Ligand>
CHEMBL3824268

> <DrugBank ID of Ligand>


> <IUPHAR_GRAC ID of Ligand>


> <KEGG ID of Ligand>


> <ZINC ID of Ligand>


> <Number of Protein Chains in Target (bigger than 1 implies a multichain complex)>
1

> <BindingDB Target Chain Sequence>
MAMQMQLEANADTSVEEESFGPQPISRLEQCGINANDVKKLEEAGFHTVEAVAYAPKKELINIKGISEAKADKILAEAAKLVPMGFTTATEFHQRRSEIIQITTGSKELDKLLQGGIETGSITEMFGEFRTGKTQICHTLAVTCQLPIDRGGGEGKAMYIDTEGTFRPERLLAVAERYGLSGSDVLDNVAYARAFNTDHQTQLLYQASAMMVESRYALLIVDSATALYRTDYSGRGELSARQMHLARFLRMLLRLADEFGVAVVITNQVVAQVDGAAMFAADPKKPIGGNIIAHASTTRLYLRKGRGETRICKIYDSPCLPEAEAMFAINADGVGDAKD

> <PDB ID(s) of Target Chain>
1N0W,5JZC,5NP7,5NWL,8BQ2,8BR2,8BSC

> <UniProt (SwissProt) Recommended Name of Target Chain>
DNA repair protein RAD51 homolog 1

> <UniProt (SwissProt) Entry Name of Target Chain>
RAD51_HUMAN

> <UniProt (SwissProt) Primary ID of Target Chain>
Q06609

> <UniProt (SwissProt) Secondary ID(s) of Target Chain>
B0FXP0 B2R8T6 Q6FHX9 Q6ZNA8 Q9BV60

> <UniProt (SwissProt) Alternative ID(s) of Target Chain>


> <UniProt (TrEMBL) Submitted Name of Target Chain>


> <UniProt (TrEMBL) Entry Name of Target Chain>


> <UniProt (TrEMBL) Primary ID of Target Chain>


> <UniProt (TrEMBL) Secondary ID(s) of Target Chain>


> <UniProt (TrEMBL) Alternative ID(s) of Target Chain>


$$$$

  SciTegic12211613302D

 22 25  0  0  0  0            999 V2000
    4.5254   -4.3830    0.0000 C   0  0
    5.8267   -3.6371    0.0000 C   0  0
    3.2287   -3.6290    0.0000 C   0  0
    3.2335   -2.1297    0.0000 C   0  0
    4.5347   -1.3830    0.0000 C   0  0
    5.8314   -2.1371    0.0000 C   0  0
    6.8641   -4.2403    0.0000 O   0  0
    0.6426    0.8996    0.0000 N   0  0
    1.9460    0.1469    0.0000 C   0  0
    1.9460   -1.3585    0.0000 C   0  0
    0.6426   -2.0562    0.0000 N   0  0
   -0.6609   -1.3585    0.0000 C   0  0
   -1.9460   -2.0562    0.0000 C   0  0
   -3.2678   -1.3585    0.0000 C   0  0
   -3.2678    0.1469    0.0000 C   0  0
   -1.9460    0.8996    0.0000 C   0  0
   -0.6609    0.1469    0.0000 C   0  0
    3.0843    1.1566    0.0000 C   0  0
    2.4601    2.5335    0.0000 C   0  0
    0.9547    2.3683    0.0000 C   0  0
   -4.5529   -2.1330    0.0000 O   0  0
   -5.6036   -1.5533    0.0000 C   0  0
  2  1  1  0
  1  3  2  0
  3  4  1  0
  4  5  2  0
  5  6  1  0
  2  6  2  0
  2  7  1  0
  8  9  1  0
  9 10  1  0
 10 11  2  0
 11 12  1  0
 12 13  1  0
 13 14  2  0
 14 15  1  0
 15 16  2  0
 16 17  1  0
  8 17  1  0
 12 17  2  0
 18 19  1  0
 19 20  2  0
  8 20  1  0
  9 18  2  0
 21 22  1  0
 14 21  1  0
  4 10  1  0
M  END
> <From>
www.bindingDB.org

> <BindingDB Reactant_set_id>
50504702

> <Ligand InChI>
InChI=1S/C18H14N2O2/c1-22-14-8-9-16-15(11-14)19-18(17-3-2-10-20(16)17)12-4-6-13(21)7-5-12/h2-11,21H,1H3

> <Ligand InChI Key>
QOWGZWUDFYRFJC-UHFFFAOYSA-N

> <BindingDB MonomerID>
50184337

> <BindingDB Ligand Name>
CHEMBL3823373

> <Target Name>
DNA repair protein RAD51 homolog 1

> <Target Source Organism According to Curator or DataSource>
Homo sapiens

> <Ki (nM)>


> <IC50 (nM)>
>100000

> <Kd (nM)>


> <EC50 (nM)>


> <kon (M-1-s-1)>


> <koff (s-1)>


> <pH>


> <Temp C>


> <Curation/DataSource>
ChEMBL

> <Article DOI>
10.1021/acs.jmedchem.5b01762

> <BindingDB Entry DOI>
10.7270/Q200041Q

> <PMID>
27049177

> <PubChem AID>


> <Patent Number>


> <Authors>
Lv, W; Budke, B; Pawlowski, M; Connell, PP; Kozikowski, AP

> <Date of publication>
5/26/2016

> <Date in BindingDB>
10/1/2017

> <Institution>
University of Illinois at Chicago

> <Link to Ligand in BindingDB>
http://www.bindingdb.org/bind/chemsearch/marvin/MolStructure.jsp?monomerid=50184337

> <Link to Ligand-Target Pair in BindingDB>
http://www.bindingdb.org/jsp/dbsearch/PrimarySearch_ki.jsp?energyterm=kJ/mole&tag=pol&polymerid=4676&target=DNA+repair+protein+RAD51+homolog+1&column=ki&startPg=0&Increment=50&submit=Search

> <Link to Ligand-Target Pair in BindingDB>
http://www.bindingdb.org/jsp/dbsearch/PrimarySearch_ki.jsp?energyterm=kJ/mole&tag=r21&monomerid=50184337&enzyme=DNA+repair+protein+RAD51+homolog+1&column=ki&startPg=0&Increment=50&submit=Search

> <Ligand HET ID in PDB>


> <PDB ID(s) for Ligand-Target Complex>


> <PubChem CID of Ligand>
127050406

> <PubChem SID of Ligand>
346550361

> <ChEBI ID of Ligand>


> <ChEMBL ID of Ligand>
CHEMBL3823373

> <DrugBank ID of Ligand>


> <IUPHAR_GRAC ID of Ligand>


> <KEGG ID of Ligand>


> <ZINC ID of Ligand>


> <Number of Protein Chains in Target (bigger than 1 implies a multichain complex)>
1

> <BindingDB Target Chain Sequence>
MAMQMQLEANADTSVEEESFGPQPISRLEQCGINANDVKKLEEAGFHTVEAVAYAPKKELINIKGISEAKADKILAEAAKLVPMGFTTATEFHQRRSEIIQITTGSKELDKLLQGGIETGSITEMFGEFRTGKTQICHTLAVTCQLPIDRGGGEGKAMYIDTEGTFRPERLLAVAERYGLSGSDVLDNVAYARAFNTDHQTQLLYQASAMMVESRYALLIVDSATALYRTDYSGRGELSARQMHLARFLRMLLRLADEFGVAVVITNQVVAQVDGAAMFAADPKKPIGGNIIAHASTTRLYLRKGRGETRICKIYDSPCLPEAEAMFAINADGVGDAKD

> <PDB ID(s) of Target Chain>
1N0W,5JZC,5NP7,5NWL,8BQ2,8BR2,8BSC

> <UniProt (SwissProt) Recommended Name of Target Chain>
DNA repair protein RAD51 homolog 1

> <UniProt (SwissProt) Entry Name of Target Chain>
RAD51_HUMAN

> <UniProt (SwissProt) Primary ID of Target Chain>
Q06609

> <UniProt (SwissProt) Secondary ID(s) of Target Chain>
B0FXP0 B2R8T6 Q6FHX9 Q6ZNA8 Q9BV60

> <UniProt (SwissProt) Alternative ID(s) of Target Chain>


> <UniProt (TrEMBL) Submitted Name of Target Chain>


> <UniProt (TrEMBL) Entry Name of Target Chain>


> <UniProt (TrEMBL) Primary ID of Target Chain>


> <UniProt (TrEMBL) Secondary ID(s) of Target Chain>


> <UniProt (TrEMBL) Alternative ID(s) of Target Chain>


$$$$

  SciTegic12211613302D

 24 27  0  0  0  0            999 V2000
    5.8267   -3.6371    0.0000 C   0  0
    4.5254   -4.3830    0.0000 C   0  0
    3.2287   -3.6290    0.0000 C   0  0
    3.2335   -2.1297    0.0000 C   0  0
    4.5347   -1.3830    0.0000 C   0  0
    5.8314   -2.1371    0.0000 C   0  0
    0.6426    0.8996    0.0000 N   0  0
    1.9460    0.1469    0.0000 C   0  0
    1.9460   -1.3585    0.0000 C   0  0
    0.6426   -2.0562    0.0000 N   0  0
   -0.6609   -1.3585    0.0000 C   0  0
   -1.9460   -2.0562    0.0000 C   0  0
   -3.2678   -1.3585    0.0000 C   0  0
   -3.2678    0.1469    0.0000 C   0  0
   -1.9460    0.8996    0.0000 C   0  0
   -0.6609    0.1469    0.0000 C   0  0
    3.0843    1.1566    0.0000 C   0  0
    2.4601    2.5335    0.0000 C   0  0
    0.9547    2.3683    0.0000 C   0  0
   -4.5529   -2.1330    0.0000 O   0  0
    7.1257   -4.3889    0.0000 N   0  3
    8.1660   -3.7907    0.0000 O   0  0
    7.1240   -5.5889    0.0000 O   0  5
   -5.6036   -1.5533    0.0000 C   0  0
  1  2  1  0
  2  3  2  0
  3  4  1  0
  4  5  2  0
  5  6  1  0
  1  6  2  0
  7  8  1  0
  8  9  1  0
  9 10  2  0
 10 11  1  0
 11 12  1  0
 12 13  2  0
 13 14  1  0
 14 15  2  0
 15 16  1  0
  7 16  1  0
 11 16  2  0
 17 18  1  0
 18 19  2  0
  7 19  1  0
  8 17  2  0
 13 20  1  0
  4  9  1  0
 21 22  2  0
 21 23  1  0
  1 21  1  0
 20 24  1  0
M  CHG  2  21   1  23  -1
M  END
> <From>
www.bindingDB.org

> <BindingDB Reactant_set_id>
50504703

> <Ligand InChI>
InChI=1S/C18H13N3O3/c1-24-14-8-9-16-15(11-14)19-18(17-3-2-10-20(16)17)12-4-6-13(7-5-12)21(22)23/h2-11H,1H3

> <Ligand InChI Key>
IBCOMHQUTPHFHN-UHFFFAOYSA-N

> <BindingDB MonomerID>
50184338

> <BindingDB Ligand Name>
CHEMBL3824180

> <Target Name>
DNA repair protein RAD51 homolog 1

> <Target Source Organism According to Curator or DataSource>
Homo sapiens

> <Ki (nM)>


> <IC50 (nM)>
>100000

> <Kd (nM)>


> <EC50 (nM)>


> <kon (M-1-s-1)>


> <koff (s-1)>


> <pH>


> <Temp C>


> <Curation/DataSource>
ChEMBL

> <Article DOI>
10.1021/acs.jmedchem.5b01762

> <BindingDB Entry DOI>
10.7270/Q200041Q

> <PMID>
27049177

> <PubChem AID>


> <Patent Number>


> <Authors>
Lv, W; Budke, B; Pawlowski, M; Connell, PP; Kozikowski, AP

> <Date of publication>
5/26/2016

> <Date in BindingDB>
10/1/2017

> <Institution>
University of Illinois at Chicago

> <Link to Ligand in BindingDB>
http://www.bindingdb.org/bind/chemsearch/marvin/MolStructure.jsp?monomerid=50184338

> <Link to Ligand-Target Pair in BindingDB>
http://www.bindingdb.org/jsp/dbsearch/PrimarySearch_ki.jsp?energyterm=kJ/mole&tag=pol&polymerid=4676&target=DNA+repair+protein+RAD51+homolog+1&column=ki&startPg=0&Increment=50&submit=Search

> <Link to Ligand-Target Pair in BindingDB>
http://www.bindingdb.org/jsp/dbsearch/PrimarySearch_ki.jsp?energyterm=kJ/mole&tag=r21&monomerid=50184338&enzyme=DNA+repair+protein+RAD51+homolog+1&column=ki&startPg=0&Increment=50&submit=Search

> <Ligand HET ID in PDB>


> <PDB ID(s) for Ligand-Target Complex>


> <PubChem CID of Ligand>
127049901

> <PubChem SID of Ligand>
346550362

> <ChEBI ID of Ligand>


> <ChEMBL ID of Ligand>
CHEMBL3824180

> <DrugBank ID of Ligand>


> <IUPHAR_GRAC ID of Ligand>


> <KEGG ID of Ligand>


> <ZINC ID of Ligand>


> <Number of Protein Chains in Target (bigger than 1 implies a multichain complex)>
1

> <BindingDB Target Chain Sequence>
MAMQMQLEANADTSVEEESFGPQPISRLEQCGINANDVKKLEEAGFHTVEAVAYAPKKELINIKGISEAKADKILAEAAKLVPMGFTTATEFHQRRSEIIQITTGSKELDKLLQGGIETGSITEMFGEFRTGKTQICHTLAVTCQLPIDRGGGEGKAMYIDTEGTFRPERLLAVAERYGLSGSDVLDNVAYARAFNTDHQTQLLYQASAMMVESRYALLIVDSATALYRTDYSGRGELSARQMHLARFLRMLLRLADEFGVAVVITNQVVAQVDGAAMFAADPKKPIGGNIIAHASTTRLYLRKGRGETRICKIYDSPCLPEAEAMFAINADGVGDAKD

> <PDB ID(s) of Target Chain>
1N0W,5JZC,5NP7,5NWL,8BQ2,8BR2,8BSC

> <UniProt (SwissProt) Recommended Name of Target Chain>
DNA repair protein RAD51 homolog 1

> <UniProt (SwissProt) Entry Name of Target Chain>
RAD51_HUMAN

> <UniProt (SwissProt) Primary ID of Target Chain>
Q06609

> <UniProt (SwissProt) Secondary ID(s) of Target Chain>
B0FXP0 B2R8T6 Q6FHX9 Q6ZNA8 Q9BV60

> <UniProt (SwissProt) Alternative ID(s) of Target Chain>


> <UniProt (TrEMBL) Submitted Name of Target Chain>


> <UniProt (TrEMBL) Entry Name of Target Chain>


> <UniProt (TrEMBL) Primary ID of Target Chain>


> <UniProt (TrEMBL) Secondary ID(s) of Target Chain>


> <UniProt (TrEMBL) Alternative ID(s) of Target Chain>


$$$$

  SciTegic12211613302D

 22 25  0  0  0  0            999 V2000
    5.8267   -3.6371    0.0000 C   0  0
    4.5254   -4.3830    0.0000 C   0  0
    3.2287   -3.6290    0.0000 C   0  0
    3.2335   -2.1297    0.0000 C   0  0
    4.5347   -1.3830    0.0000 C   0  0
    5.8314   -2.1371    0.0000 C   0  0
    0.6426    0.8996    0.0000 N   0  0
    1.9460    0.1469    0.0000 C   0  0
    1.9460   -1.3585    0.0000 C   0  0
    0.6426   -2.0562    0.0000 N   0  0
   -0.6609   -1.3585    0.0000 C   0  0
   -1.9460   -2.0562    0.0000 C   0  0
   -3.2678   -1.3585    0.0000 C   0  0
   -3.2678    0.1469    0.0000 C   0  0
   -1.9460    0.8996    0.0000 C   0  0
   -0.6609    0.1469    0.0000 C   0  0
    3.0843    1.1566    0.0000 C   0  0
    2.4601    2.5335    0.0000 C   0  0
    0.9547    2.3683    0.0000 C   0  0
   -4.5529   -2.1330    0.0000 O   0  0
   -5.6036   -1.5533    0.0000 C   0  0
    6.8641   -4.2403    0.0000 N   0  0
  1  2  1  0
  2  3  2  0
  3  4  1  0
  4  5  2  0
  5  6  1  0
  1  6  2  0
  7  8  1  0
  8  9  1  0
  9 10  2  0
 10 11  1  0
 11 12  1  0
 12 13  2  0
 13 14  1  0
 14 15  2  0
 15 16  1  0
  7 16  1  0
 11 16  2  0
 17 18  1  0
 18 19  2  0
  7 19  1  0
  8 17  2  0
 13 20  1  0
  4  9  1  0
 20 21  1  0
  1 22  1  0
M  END
> <From>
www.bindingDB.org

> <BindingDB Reactant_set_id>
50504704

> <Ligand InChI>
InChI=1S/C18H15N3O/c1-22-14-8-9-16-15(11-14)20-18(17-3-2-10-21(16)17)12-4-6-13(19)7-5-12/h2-11H,19H2,1H3

> <Ligand InChI Key>
XYKNYNASOGBFBV-UHFFFAOYSA-N

> <BindingDB MonomerID>
50184339

> <BindingDB Ligand Name>
CHEMBL3824107

> <Target Name>
DNA repair protein RAD51 homolog 1

> <Target Source Organism According to Curator or DataSource>
Homo sapiens

> <Ki (nM)>


> <IC50 (nM)>
 13200

> <Kd (nM)>


> <EC50 (nM)>


> <kon (M-1-s-1)>


> <koff (s-1)>


> <pH>


> <Temp C>


> <Curation/DataSource>
ChEMBL

> <Article DOI>
10.1021/acs.jmedchem.5b01762

> <BindingDB Entry DOI>
10.7270/Q200041Q

> <PMID>
27049177

> <PubChem AID>


> <Patent Number>


> <Authors>
Lv, W; Budke, B; Pawlowski, M; Connell, PP; Kozikowski, AP

> <Date of publication>
5/26/2016

> <Date in BindingDB>
10/1/2017

> <Institution>
University of Illinois at Chicago

> <Link to Ligand in BindingDB>
http://www.bindingdb.org/bind/chemsearch/marvin/MolStructure.jsp?monomerid=50184339

> <Link to Ligand-Target Pair in BindingDB>
http://www.bindingdb.org/jsp/dbsearch/PrimarySearch_ki.jsp?energyterm=kJ/mole&tag=pol&polymerid=4676&target=DNA+repair+protein+RAD51+homolog+1&column=ki&startPg=0&Increment=50&submit=Search

> <Link to Ligand-Target Pair in BindingDB>
http://www.bindingdb.org/jsp/dbsearch/PrimarySearch_ki.jsp?energyterm=kJ/mole&tag=r21&monomerid=50184339&enzyme=DNA+repair+protein+RAD51+homolog+1&column=ki&startPg=0&Increment=50&submit=Search

> <Ligand HET ID in PDB>


> <PDB ID(s) for Ligand-Target Complex>


> <PubChem CID of Ligand>
127048584

> <PubChem SID of Ligand>
346550363

> <ChEBI ID of Ligand>


> <ChEMBL ID of Ligand>
CHEMBL3824107

> <DrugBank ID of Ligand>


> <IUPHAR_GRAC ID of Ligand>


> <KEGG ID of Ligand>


> <ZINC ID of Ligand>


> <Number of Protein Chains in Target (bigger than 1 implies a multichain complex)>
1

> <BindingDB Target Chain Sequence>
MAMQMQLEANADTSVEEESFGPQPISRLEQCGINANDVKKLEEAGFHTVEAVAYAPKKELINIKGISEAKADKILAEAAKLVPMGFTTATEFHQRRSEIIQITTGSKELDKLLQGGIETGSITEMFGEFRTGKTQICHTLAVTCQLPIDRGGGEGKAMYIDTEGTFRPERLLAVAERYGLSGSDVLDNVAYARAFNTDHQTQLLYQASAMMVESRYALLIVDSATALYRTDYSGRGELSARQMHLARFLRMLLRLADEFGVAVVITNQVVAQVDGAAMFAADPKKPIGGNIIAHASTTRLYLRKGRGETRICKIYDSPCLPEAEAMFAINADGVGDAKD

> <PDB ID(s) of Target Chain>
1N0W,5JZC,5NP7,5NWL,8BQ2,8BR2,8BSC

> <UniProt (SwissProt) Recommended Name of Target Chain>
DNA repair protein RAD51 homolog 1

> <UniProt (SwissProt) Entry Name of Target Chain>
RAD51_HUMAN

> <UniProt (SwissProt) Primary ID of Target Chain>
Q06609

> <UniProt (SwissProt) Secondary ID(s) of Target Chain>
B0FXP0 B2R8T6 Q6FHX9 Q6ZNA8 Q9BV60

> <UniProt (SwissProt) Alternative ID(s) of Target Chain>


> <UniProt (TrEMBL) Submitted Name of Target Chain>


> <UniProt (TrEMBL) Entry Name of Target Chain>


> <UniProt (TrEMBL) Primary ID of Target Chain>


> <UniProt (TrEMBL) Secondary ID(s) of Target Chain>


> <UniProt (TrEMBL) Alternative ID(s) of Target Chain>


$$$$

  SciTegic12211613302D

 21 24  0  0  0  0            999 V2000
    5.8267   -3.6371    0.0000 C   0  0
    4.5254   -4.3830    0.0000 C   0  0
    3.2287   -3.6290    0.0000 C   0  0
    3.2335   -2.1297    0.0000 C   0  0
    4.5347   -1.3830    0.0000 C   0  0
    5.8314   -2.1371    0.0000 C   0  0
    0.6426    0.8996    0.0000 N   0  0
    1.9460    0.1469    0.0000 C   0  0
    1.9460   -1.3585    0.0000 C   0  0
    0.6426   -2.0562    0.0000 N   0  0
   -0.6609   -1.3585    0.0000 C   0  0
   -1.9460   -2.0562    0.0000 C   0  0
   -3.2678   -1.3585    0.0000 C   0  0
   -3.2678    0.1469    0.0000 C   0  0
   -1.9460    0.8996    0.0000 C   0  0
   -0.6609    0.1469    0.0000 C   0  0
    3.0843    1.1566    0.0000 C   0  0
    2.4601    2.5335    0.0000 C   0  0
    0.9547    2.3683    0.0000 C   0  0
   -4.2955   -1.9782    0.0000 O   0  0
    6.8641   -4.2403    0.0000 O   0  0
  1  2  1  0
  2  3  2  0
  3  4  1  0
  4  5  2  0
  5  6  1  0
  1  6  2  0
  7  8  1  0
  8  9  1  0
  9 10  2  0
 10 11  1  0
 11 12  1  0
 12 13  2  0
 13 14  1  0
 14 15  2  0
 15 16  1  0
  7 16  1  0
 11 16  2  0
 17 18  1  0
 18 19  2  0
  7 19  1  0
  8 17  2  0
 13 20  1  0
  4  9  1  0
  1 21  1  0
M  END
> <From>
www.bindingDB.org

> <BindingDB Reactant_set_id>
50504705

> <Ligand InChI>
InChI=1S/C17H12N2O2/c20-12-5-3-11(4-6-12)17-16-2-1-9-19(16)15-8-7-13(21)10-14(15)18-17/h1-10,20-21H

> <Ligand InChI Key>
UABSOOKPIHWMSR-UHFFFAOYSA-N

> <BindingDB MonomerID>
50184340

> <BindingDB Ligand Name>
CHEMBL3822556

> <Target Name>
DNA repair protein RAD51 homolog 1

> <Target Source Organism According to Curator or DataSource>
Homo sapiens

> <Ki (nM)>


> <IC50 (nM)>
 27600

> <Kd (nM)>


> <EC50 (nM)>


> <kon (M-1-s-1)>


> <koff (s-1)>


> <pH>


> <Temp C>


> <Curation/DataSource>
ChEMBL

> <Article DOI>
10.1021/acs.jmedchem.5b01762

> <BindingDB Entry DOI>
10.7270/Q200041Q

> <PMID>
27049177

> <PubChem AID>


> <Patent Number>


> <Authors>
Lv, W; Budke, B; Pawlowski, M; Connell, PP; Kozikowski, AP

> <Date of publication>
5/26/2016

> <Date in BindingDB>
10/1/2017

> <Institution>
University of Illinois at Chicago

> <Link to Ligand in BindingDB>
http://www.bindingdb.org/bind/chemsearch/marvin/MolStructure.jsp?monomerid=50184340

> <Link to Ligand-Target Pair in BindingDB>
http://www.bindingdb.org/jsp/dbsearch/PrimarySearch_ki.jsp?energyterm=kJ/mole&tag=pol&polymerid=4676&target=DNA+repair+protein+RAD51+homolog+1&column=ki&startPg=0&Increment=50&submit=Search

> <Link to Ligand-Target Pair in BindingDB>
http://www.bindingdb.org/jsp/dbsearch/PrimarySearch_ki.jsp?energyterm=kJ/mole&tag=r21&monomerid=50184340&enzyme=DNA+repair+protein+RAD51+homolog+1&column=ki&startPg=0&Increment=50&submit=Search

> <Ligand HET ID in PDB>


> <PDB ID(s) for Ligand-Target Complex>


> <PubChem CID of Ligand>
127049236

> <PubChem SID of Ligand>
346550364

> <ChEBI ID of Ligand>


> <ChEMBL ID of Ligand>
CHEMBL3822556

> <DrugBank ID of Ligand>


> <IUPHAR_GRAC ID of Ligand>


> <KEGG ID of Ligand>


> <ZINC ID of Ligand>


> <Number of Protein Chains in Target (bigger than 1 implies a multichain complex)>
1

> <BindingDB Target Chain Sequence>
MAMQMQLEANADTSVEEESFGPQPISRLEQCGINANDVKKLEEAGFHTVEAVAYAPKKELINIKGISEAKADKILAEAAKLVPMGFTTATEFHQRRSEIIQITTGSKELDKLLQGGIETGSITEMFGEFRTGKTQICHTLAVTCQLPIDRGGGEGKAMYIDTEGTFRPERLLAVAERYGLSGSDVLDNVAYARAFNTDHQTQLLYQASAMMVESRYALLIVDSATALYRTDYSGRGELSARQMHLARFLRMLLRLADEFGVAVVITNQVVAQVDGAAMFAADPKKPIGGNIIAHASTTRLYLRKGRGETRICKIYDSPCLPEAEAMFAINADGVGDAKD

> <PDB ID(s) of Target Chain>
1N0W,5JZC,5NP7,5NWL,8BQ2,8BR2,8BSC

> <UniProt (SwissProt) Recommended Name of Target Chain>
DNA repair protein RAD51 homolog 1

> <UniProt (SwissProt) Entry Name of Target Chain>
RAD51_HUMAN

> <UniProt (SwissProt) Primary ID of Target Chain>
Q06609

> <UniProt (SwissProt) Secondary ID(s) of Target Chain>
B0FXP0 B2R8T6 Q6FHX9 Q6ZNA8 Q9BV60

> <UniProt (SwissProt) Alternative ID(s) of Target Chain>


> <UniProt (TrEMBL) Submitted Name of Target Chain>


> <UniProt (TrEMBL) Entry Name of Target Chain>


> <UniProt (TrEMBL) Primary ID of Target Chain>


> <UniProt (TrEMBL) Secondary ID(s) of Target Chain>


> <UniProt (TrEMBL) Alternative ID(s) of Target Chain>


$$$$

  SciTegic12211613302D

 23 26  0  0  0  0            999 V2000
    5.8267   -3.6371    0.0000 C   0  0
    4.5254   -4.3830    0.0000 C   0  0
    3.2287   -3.6290    0.0000 C   0  0
    3.2335   -2.1297    0.0000 C   0  0
    4.5347   -1.3830    0.0000 C   0  0
    5.8314   -2.1371    0.0000 C   0  0
    0.6426    0.8996    0.0000 N   0  0
    1.9460    0.1469    0.0000 C   0  0
    1.9460   -1.3585    0.0000 C   0  0
    0.6426   -2.0562    0.0000 N   0  0
   -0.6609   -1.3585    0.0000 C   0  0
   -1.9460   -2.0562    0.0000 C   0  0
   -3.2678   -1.3585    0.0000 C   0  0
   -3.2678    0.1469    0.0000 C   0  0
   -1.9460    0.8996    0.0000 C   0  0
   -0.6609    0.1469    0.0000 C   0  0
    3.0843    1.1566    0.0000 C   0  0
    2.4601    2.5335    0.0000 C   0  0
    0.9547    2.3683    0.0000 C   0  0
   -4.2955   -1.9782    0.0000 O   0  0
    7.1257   -4.3889    0.0000 N   0  3
    8.1660   -3.7907    0.0000 O   0  0
    7.1240   -5.5889    0.0000 O   0  5
  1  2  1  0
  2  3  2  0
  3  4  1  0
  4  5  2  0
  5  6  1  0
  1  6  2  0
  7  8  1  0
  8  9  1  0
  9 10  2  0
 10 11  1  0
 11 12  1  0
 12 13  2  0
 13 14  1  0
 14 15  2  0
 15 16  1  0
  7 16  1  0
 11 16  2  0
 17 18  1  0
 18 19  2  0
  7 19  1  0
  8 17  2  0
 13 20  1  0
  4  9  1  0
 21 22  2  0
 21 23  1  0
  1 21  1  0
M  CHG  2  21   1  23  -1
M  END
> <From>
www.bindingDB.org

> <BindingDB Reactant_set_id>
50504706

> <Ligand InChI>
InChI=1S/C17H11N3O3/c21-13-7-8-15-14(10-13)18-17(16-2-1-9-19(15)16)11-3-5-12(6-4-11)20(22)23/h1-10,21H

> <Ligand InChI Key>
ZTFWMUHYFASVIP-UHFFFAOYSA-N

> <BindingDB MonomerID>
50184341

> <BindingDB Ligand Name>
CHEMBL3824216

> <Target Name>
DNA repair protein RAD51 homolog 1

> <Target Source Organism According to Curator or DataSource>
Homo sapiens

> <Ki (nM)>


> <IC50 (nM)>
>100000

> <Kd (nM)>


> <EC50 (nM)>


> <kon (M-1-s-1)>


> <koff (s-1)>


> <pH>


> <Temp C>


> <Curation/DataSource>
ChEMBL

> <Article DOI>
10.1021/acs.jmedchem.5b01762

> <BindingDB Entry DOI>
10.7270/Q200041Q

> <PMID>
27049177

> <PubChem AID>


> <Patent Number>


> <Authors>
Lv, W; Budke, B; Pawlowski, M; Connell, PP; Kozikowski, AP

> <Date of publication>
5/26/2016

> <Date in BindingDB>
10/1/2017

> <Institution>
University of Illinois at Chicago

> <Link to Ligand in BindingDB>
http://www.bindingdb.org/bind/chemsearch/marvin/MolStructure.jsp?monomerid=50184341

> <Link to Ligand-Target Pair in BindingDB>
http://www.bindingdb.org/jsp/dbsearch/PrimarySearch_ki.jsp?energyterm=kJ/mole&tag=pol&polymerid=4676&target=DNA+repair+protein+RAD51+homolog+1&column=ki&startPg=0&Increment=50&submit=Search

> <Link to Ligand-Target Pair in BindingDB>
http://www.bindingdb.org/jsp/dbsearch/PrimarySearch_ki.jsp?energyterm=kJ/mole&tag=r21&monomerid=50184341&enzyme=DNA+repair+protein+RAD51+homolog+1&column=ki&startPg=0&Increment=50&submit=Search

> <Ligand HET ID in PDB>


> <PDB ID(s) for Ligand-Target Complex>


> <PubChem CID of Ligand>
127052644

> <PubChem SID of Ligand>
346550365

> <ChEBI ID of Ligand>


> <ChEMBL ID of Ligand>
CHEMBL3824216

> <DrugBank ID of Ligand>


> <IUPHAR_GRAC ID of Ligand>


> <KEGG ID of Ligand>


> <ZINC ID of Ligand>


> <Number of Protein Chains in Target (bigger than 1 implies a multichain complex)>
1

> <BindingDB Target Chain Sequence>
MAMQMQLEANADTSVEEESFGPQPISRLEQCGINANDVKKLEEAGFHTVEAVAYAPKKELINIKGISEAKADKILAEAAKLVPMGFTTATEFHQRRSEIIQITTGSKELDKLLQGGIETGSITEMFGEFRTGKTQICHTLAVTCQLPIDRGGGEGKAMYIDTEGTFRPERLLAVAERYGLSGSDVLDNVAYARAFNTDHQTQLLYQASAMMVESRYALLIVDSATALYRTDYSGRGELSARQMHLARFLRMLLRLADEFGVAVVITNQVVAQVDGAAMFAADPKKPIGGNIIAHASTTRLYLRKGRGETRICKIYDSPCLPEAEAMFAINADGVGDAKD

> <PDB ID(s) of Target Chain>
1N0W,5JZC,5NP7,5NWL,8BQ2,8BR2,8BSC

> <UniProt (SwissProt) Recommended Name of Target Chain>
DNA repair protein RAD51 homolog 1

> <UniProt (SwissProt) Entry Name of Target Chain>
RAD51_HUMAN

> <UniProt (SwissProt) Primary ID of Target Chain>
Q06609

> <UniProt (SwissProt) Secondary ID(s) of Target Chain>
B0FXP0 B2R8T6 Q6FHX9 Q6ZNA8 Q9BV60

> <UniProt (SwissProt) Alternative ID(s) of Target Chain>


> <UniProt (TrEMBL) Submitted Name of Target Chain>


> <UniProt (TrEMBL) Entry Name of Target Chain>


> <UniProt (TrEMBL) Primary ID of Target Chain>


> <UniProt (TrEMBL) Secondary ID(s) of Target Chain>


> <UniProt (TrEMBL) Alternative ID(s) of Target Chain>


$$$$

  SciTegic12211613302D

 21 24  0  0  0  0            999 V2000
    5.8267   -3.6371    0.0000 C   0  0
    4.5254   -4.3830    0.0000 C   0  0
    3.2287   -3.6290    0.0000 C   0  0
    3.2335   -2.1297    0.0000 C   0  0
    4.5347   -1.3830    0.0000 C   0  0
    5.8314   -2.1371    0.0000 C   0  0
    0.6426    0.8996    0.0000 N   0  0
    1.9460    0.1469    0.0000 C   0  0
    1.9460   -1.3585    0.0000 C   0  0
    0.6426   -2.0562    0.0000 N   0  0
   -0.6609   -1.3585    0.0000 C   0  0
   -1.9460   -2.0562    0.0000 C   0  0
   -3.2678   -1.3585    0.0000 C   0  0
   -3.2678    0.1469    0.0000 C   0  0
   -1.9460    0.8996    0.0000 C   0  0
   -0.6609    0.1469    0.0000 C   0  0
    3.0843    1.1566    0.0000 C   0  0
    2.4601    2.5335    0.0000 C   0  0
    0.9547    2.3683    0.0000 C   0  0
   -4.2955   -1.9782    0.0000 O   0  0
    6.8641   -4.2403    0.0000 N   0  0
  1  2  1  0
  2  3  2  0
  3  4  1  0
  4  5  2  0
  5  6  1  0
  1  6  2  0
  7  8  1  0
  8  9  1  0
  9 10  2  0
 10 11  1  0
 11 12  1  0
 12 13  2  0
 13 14  1  0
 14 15  2  0
 15 16  1  0
  7 16  1  0
 11 16  2  0
 17 18  1  0
 18 19  2  0
  7 19  1  0
  8 17  2  0
 13 20  1  0
  4  9  1  0
  1 21  1  0
M  END
> <From>
www.bindingDB.org

> <BindingDB Reactant_set_id>
50504707

> <Ligand InChI>
InChI=1S/C17H13N3O/c18-12-5-3-11(4-6-12)17-16-2-1-9-20(16)15-8-7-13(21)10-14(15)19-17/h1-10,21H,18H2

> <Ligand InChI Key>
PELQZHZYRKUEPL-UHFFFAOYSA-N

> <BindingDB MonomerID>
50184342

> <BindingDB Ligand Name>
CHEMBL3823002

> <Target Name>
DNA repair protein RAD51 homolog 1

> <Target Source Organism According to Curator or DataSource>
Homo sapiens

> <Ki (nM)>


> <IC50 (nM)>
 8400

> <Kd (nM)>


> <EC50 (nM)>


> <kon (M-1-s-1)>


> <koff (s-1)>


> <pH>


> <Temp C>


> <Curation/DataSource>
ChEMBL

> <Article DOI>
10.1021/acs.jmedchem.5b01762

> <BindingDB Entry DOI>
10.7270/Q200041Q

> <PMID>
27049177

> <PubChem AID>


> <Patent Number>


> <Authors>
Lv, W; Budke, B; Pawlowski, M; Connell, PP; Kozikowski, AP

> <Date of publication>
5/26/2016

> <Date in BindingDB>
10/1/2017

> <Institution>
University of Illinois at Chicago

> <Link to Ligand in BindingDB>
http://www.bindingdb.org/bind/chemsearch/marvin/MolStructure.jsp?monomerid=50184342

> <Link to Ligand-Target Pair in BindingDB>
http://www.bindingdb.org/jsp/dbsearch/PrimarySearch_ki.jsp?energyterm=kJ/mole&tag=pol&polymerid=4676&target=DNA+repair+protein+RAD51+homolog+1&column=ki&startPg=0&Increment=50&submit=Search

> <Link to Ligand-Target Pair in BindingDB>
http://www.bindingdb.org/jsp/dbsearch/PrimarySearch_ki.jsp?energyterm=kJ/mole&tag=r21&monomerid=50184342&enzyme=DNA+repair+protein+RAD51+homolog+1&column=ki&startPg=0&Increment=50&submit=Search

> <Ligand HET ID in PDB>


> <PDB ID(s) for Ligand-Target Complex>


> <PubChem CID of Ligand>
127051390

> <PubChem SID of Ligand>
346550366

> <ChEBI ID of Ligand>


> <ChEMBL ID of Ligand>
CHEMBL3823002

> <DrugBank ID of Ligand>


> <IUPHAR_GRAC ID of Ligand>


> <KEGG ID of Ligand>


> <ZINC ID of Ligand>


> <Number of Protein Chains in Target (bigger than 1 implies a multichain complex)>
1

> <BindingDB Target Chain Sequence>
MAMQMQLEANADTSVEEESFGPQPISRLEQCGINANDVKKLEEAGFHTVEAVAYAPKKELINIKGISEAKADKILAEAAKLVPMGFTTATEFHQRRSEIIQITTGSKELDKLLQGGIETGSITEMFGEFRTGKTQICHTLAVTCQLPIDRGGGEGKAMYIDTEGTFRPERLLAVAERYGLSGSDVLDNVAYARAFNTDHQTQLLYQASAMMVESRYALLIVDSATALYRTDYSGRGELSARQMHLARFLRMLLRLADEFGVAVVITNQVVAQVDGAAMFAADPKKPIGGNIIAHASTTRLYLRKGRGETRICKIYDSPCLPEAEAMFAINADGVGDAKD

> <PDB ID(s) of Target Chain>
1N0W,5JZC,5NP7,5NWL,8BQ2,8BR2,8BSC

> <UniProt (SwissProt) Recommended Name of Target Chain>
DNA repair protein RAD51 homolog 1

> <UniProt (SwissProt) Entry Name of Target Chain>
RAD51_HUMAN

> <UniProt (SwissProt) Primary ID of Target Chain>
Q06609

> <UniProt (SwissProt) Secondary ID(s) of Target Chain>
B0FXP0 B2R8T6 Q6FHX9 Q6ZNA8 Q9BV60

> <UniProt (SwissProt) Alternative ID(s) of Target Chain>


> <UniProt (TrEMBL) Submitted Name of Target Chain>


> <UniProt (TrEMBL) Entry Name of Target Chain>


> <UniProt (TrEMBL) Primary ID of Target Chain>


> <UniProt (TrEMBL) Secondary ID(s) of Target Chain>


> <UniProt (TrEMBL) Alternative ID(s) of Target Chain>


$$$$

  SciTegic12211613302D

 23 26  0  0  0  0            999 V2000
    5.8267   -3.6371    0.0000 C   0  0
    4.5254   -4.3830    0.0000 C   0  0
    3.2287   -3.6290    0.0000 C   0  0
    3.2335   -2.1297    0.0000 C   0  0
    4.5347   -1.3830    0.0000 C   0  0
    5.8314   -2.1371    0.0000 C   0  0
    0.6426    0.8996    0.0000 N   0  0
    1.9460    0.1469    0.0000 C   0  0
    1.9460   -1.3585    0.0000 C   0  0
    0.6426   -2.0562    0.0000 N   0  0
   -0.6609   -1.3585    0.0000 C   0  0
   -1.9460   -2.0562    0.0000 C   0  0
   -3.2678   -1.3585    0.0000 C   0  0
   -3.2678    0.1469    0.0000 C   0  0
   -1.9460    0.8996    0.0000 C   0  0
   -0.6609    0.1469    0.0000 C   0  0
    3.0843    1.1566    0.0000 C   0  0
    2.4601    2.5335    0.0000 C   0  0
    0.9547    2.3683    0.0000 C   0  0
   -4.2955   -1.9782    0.0000 O   0  0
    7.1257   -4.3889    0.0000 N   0  0
    8.1660   -3.7907    0.0000 C   0  0
    7.1240   -5.5889    0.0000 C   0  0
  1  2  1  0
  2  3  2  0
  3  4  1  0
  4  5  2  0
  5  6  1  0
  1  6  2  0
  7  8  1  0
  8  9  1  0
  9 10  2  0
 10 11  1  0
 11 12  1  0
 12 13  2  0
 13 14  1  0
 14 15  2  0
 15 16  1  0
  7 16  1  0
 11 16  2  0
 17 18  1  0
 18 19  2  0
  7 19  1  0
  8 17  2  0
 13 20  1  0
  4  9  1  0
  1 21  1  0
 21 22  1  0
 21 23  1  0
M  END
> <From>
www.bindingDB.org

> <BindingDB Reactant_set_id>
50504708

> <Ligand InChI>
InChI=1S/C19H17N3O/c1-21(2)14-7-5-13(6-8-14)19-18-4-3-11-22(18)17-10-9-15(23)12-16(17)20-19/h3-12,23H,1-2H3

> <Ligand InChI Key>
AGEXPMNIPQBGOW-UHFFFAOYSA-N

> <BindingDB MonomerID>
50184343

> <BindingDB Ligand Name>
CHEMBL3822706

> <Target Name>
DNA repair protein RAD51 homolog 1

> <Target Source Organism According to Curator or DataSource>
Homo sapiens

> <Ki (nM)>


> <IC50 (nM)>
 9800

> <Kd (nM)>


> <EC50 (nM)>


> <kon (M-1-s-1)>


> <koff (s-1)>


> <pH>


> <Temp C>


> <Curation/DataSource>
ChEMBL

> <Article DOI>
10.1021/acs.jmedchem.5b01762

> <BindingDB Entry DOI>
10.7270/Q200041Q

> <PMID>
27049177

> <PubChem AID>


> <Patent Number>


> <Authors>
Lv, W; Budke, B; Pawlowski, M; Connell, PP; Kozikowski, AP

> <Date of publication>
5/26/2016

> <Date in BindingDB>
10/1/2017

> <Institution>
University of Illinois at Chicago

> <Link to Ligand in BindingDB>
http://www.bindingdb.org/bind/chemsearch/marvin/MolStructure.jsp?monomerid=50184343

> <Link to Ligand-Target Pair in BindingDB>
http://www.bindingdb.org/jsp/dbsearch/PrimarySearch_ki.jsp?energyterm=kJ/mole&tag=pol&polymerid=4676&target=DNA+repair+protein+RAD51+homolog+1&column=ki&startPg=0&Increment=50&submit=Search

> <Link to Ligand-Target Pair in BindingDB>
http://www.bindingdb.org/jsp/dbsearch/PrimarySearch_ki.jsp?energyterm=kJ/mole&tag=r21&monomerid=50184343&enzyme=DNA+repair+protein+RAD51+homolog+1&column=ki&startPg=0&Increment=50&submit=Search

> <Ligand HET ID in PDB>


> <PDB ID(s) for Ligand-Target Complex>


> <PubChem CID of Ligand>
127052833

> <PubChem SID of Ligand>
346550367

> <ChEBI ID of Ligand>


> <ChEMBL ID of Ligand>
CHEMBL3822706

> <DrugBank ID of Ligand>


> <IUPHAR_GRAC ID of Ligand>


> <KEGG ID of Ligand>


> <ZINC ID of Ligand>


> <Number of Protein Chains in Target (bigger than 1 implies a multichain complex)>
1

> <BindingDB Target Chain Sequence>
MAMQMQLEANADTSVEEESFGPQPISRLEQCGINANDVKKLEEAGFHTVEAVAYAPKKELINIKGISEAKADKILAEAAKLVPMGFTTATEFHQRRSEIIQITTGSKELDKLLQGGIETGSITEMFGEFRTGKTQICHTLAVTCQLPIDRGGGEGKAMYIDTEGTFRPERLLAVAERYGLSGSDVLDNVAYARAFNTDHQTQLLYQASAMMVESRYALLIVDSATALYRTDYSGRGELSARQMHLARFLRMLLRLADEFGVAVVITNQVVAQVDGAAMFAADPKKPIGGNIIAHASTTRLYLRKGRGETRICKIYDSPCLPEAEAMFAINADGVGDAKD

> <PDB ID(s) of Target Chain>
1N0W,5JZC,5NP7,5NWL,8BQ2,8BR2,8BSC

> <UniProt (SwissProt) Recommended Name of Target Chain>
DNA repair protein RAD51 homolog 1

> <UniProt (SwissProt) Entry Name of Target Chain>
RAD51_HUMAN

> <UniProt (SwissProt) Primary ID of Target Chain>
Q06609

> <UniProt (SwissProt) Secondary ID(s) of Target Chain>
B0FXP0 B2R8T6 Q6FHX9 Q6ZNA8 Q9BV60

> <UniProt (SwissProt) Alternative ID(s) of Target Chain>


> <UniProt (TrEMBL) Submitted Name of Target Chain>


> <UniProt (TrEMBL) Entry Name of Target Chain>


> <UniProt (TrEMBL) Primary ID of Target Chain>


> <UniProt (TrEMBL) Secondary ID(s) of Target Chain>


> <UniProt (TrEMBL) Alternative ID(s) of Target Chain>


$$$$

  SciTegic12211613302D

 21 24  0  0  0  0            999 V2000
    5.8267   -3.6371    0.0000 C   0  0
    4.5254   -4.3830    0.0000 C   0  0
    3.2287   -3.6290    0.0000 C   0  0
    3.2335   -2.1297    0.0000 C   0  0
    4.5347   -1.3830    0.0000 C   0  0
    5.8314   -2.1371    0.0000 C   0  0
    0.6426    0.8996    0.0000 N   0  0
    1.9460    0.1469    0.0000 C   0  0
    1.9460   -1.3585    0.0000 C   0  0
    0.6426   -2.0562    0.0000 N   0  0
   -0.6609   -1.3585    0.0000 C   0  0
   -1.9460   -2.0562    0.0000 C   0  0
   -3.2678   -1.3585    0.0000 C   0  0
   -3.2678    0.1469    0.0000 C   0  0
   -1.9460    0.8996    0.0000 C   0  0
   -0.6609    0.1469    0.0000 C   0  0
    3.0843    1.1566    0.0000 C   0  0
    2.4601    2.5335    0.0000 C   0  0
    0.9547    2.3683    0.0000 C   0  0
    6.8641   -4.2403    0.0000 N   0  0
   -4.2955   -1.9782    0.0000 F   0  0
  1  2  1  0
  2  3  2  0
  3  4  1  0
  4  5  2  0
  5  6  1  0
  1  6  2  0
  7  8  1  0
  8  9  1  0
  9 10  2  0
 10 11  1  0
 11 12  1  0
 12 13  2  0
 13 14  1  0
 14 15  2  0
 15 16  1  0
  7 16  1  0
 11 16  2  0
 17 18  1  0
 18 19  2  0
  7 19  1  0
  8 17  2  0
  4  9  1  0
  1 20  1  0
 13 21  1  0
M  END
> <From>
www.bindingDB.org

> <BindingDB Reactant_set_id>
50504709

> <Ligand InChI>
InChI=1S/C17H12FN3/c18-12-5-8-15-14(10-12)20-17(16-2-1-9-21(15)16)11-3-6-13(19)7-4-11/h1-10H,19H2

> <Ligand InChI Key>
LIDCYMASVFNFNC-UHFFFAOYSA-N

> <BindingDB MonomerID>
50184344

> <BindingDB Ligand Name>
CHEMBL3823899

> <Target Name>
DNA repair protein RAD51 homolog 1

> <Target Source Organism According to Curator or DataSource>
Homo sapiens

> <Ki (nM)>


> <IC50 (nM)>
 25000

> <Kd (nM)>


> <EC50 (nM)>


> <kon (M-1-s-1)>


> <koff (s-1)>


> <pH>


> <Temp C>


> <Curation/DataSource>
ChEMBL

> <Article DOI>
10.1021/acs.jmedchem.5b01762

> <BindingDB Entry DOI>
10.7270/Q200041Q

> <PMID>
27049177

> <PubChem AID>


> <Patent Number>


> <Authors>
Lv, W; Budke, B; Pawlowski, M; Connell, PP; Kozikowski, AP

> <Date of publication>
5/26/2016

> <Date in BindingDB>
10/1/2017

> <Institution>
University of Illinois at Chicago

> <Link to Ligand in BindingDB>
http://www.bindingdb.org/bind/chemsearch/marvin/MolStructure.jsp?monomerid=50184344

> <Link to Ligand-Target Pair in BindingDB>
http://www.bindingdb.org/jsp/dbsearch/PrimarySearch_ki.jsp?energyterm=kJ/mole&tag=pol&polymerid=4676&target=DNA+repair+protein+RAD51+homolog+1&column=ki&startPg=0&Increment=50&submit=Search

> <Link to Ligand-Target Pair in BindingDB>
http://www.bindingdb.org/jsp/dbsearch/PrimarySearch_ki.jsp?energyterm=kJ/mole&tag=r21&monomerid=50184344&enzyme=DNA+repair+protein+RAD51+homolog+1&column=ki&startPg=0&Increment=50&submit=Search

> <Ligand HET ID in PDB>


> <PDB ID(s) for Ligand-Target Complex>


> <PubChem CID of Ligand>
127050408

> <PubChem SID of Ligand>
346550368

> <ChEBI ID of Ligand>


> <ChEMBL ID of Ligand>
CHEMBL3823899

> <DrugBank ID of Ligand>


> <IUPHAR_GRAC ID of Ligand>


> <KEGG ID of Ligand>


> <ZINC ID of Ligand>


> <Number of Protein Chains in Target (bigger than 1 implies a multichain complex)>
1

> <BindingDB Target Chain Sequence>
MAMQMQLEANADTSVEEESFGPQPISRLEQCGINANDVKKLEEAGFHTVEAVAYAPKKELINIKGISEAKADKILAEAAKLVPMGFTTATEFHQRRSEIIQITTGSKELDKLLQGGIETGSITEMFGEFRTGKTQICHTLAVTCQLPIDRGGGEGKAMYIDTEGTFRPERLLAVAERYGLSGSDVLDNVAYARAFNTDHQTQLLYQASAMMVESRYALLIVDSATALYRTDYSGRGELSARQMHLARFLRMLLRLADEFGVAVVITNQVVAQVDGAAMFAADPKKPIGGNIIAHASTTRLYLRKGRGETRICKIYDSPCLPEAEAMFAINADGVGDAKD

> <PDB ID(s) of Target Chain>
1N0W,5JZC,5NP7,5NWL,8BQ2,8BR2,8BSC

> <UniProt (SwissProt) Recommended Name of Target Chain>
DNA repair protein RAD51 homolog 1

> <UniProt (SwissProt) Entry Name of Target Chain>
RAD51_HUMAN

> <UniProt (SwissProt) Primary ID of Target Chain>
Q06609

> <UniProt (SwissProt) Secondary ID(s) of Target Chain>
B0FXP0 B2R8T6 Q6FHX9 Q6ZNA8 Q9BV60

> <UniProt (SwissProt) Alternative ID(s) of Target Chain>


> <UniProt (TrEMBL) Submitted Name of Target Chain>


> <UniProt (TrEMBL) Entry Name of Target Chain>


> <UniProt (TrEMBL) Primary ID of Target Chain>


> <UniProt (TrEMBL) Secondary ID(s) of Target Chain>


> <UniProt (TrEMBL) Alternative ID(s) of Target Chain>


$$$$

  SciTegic12211613302D

 23 26  0  0  0  0            999 V2000
    5.8267   -3.6371    0.0000 C   0  0
    4.5254   -4.3830    0.0000 C   0  0
    3.2287   -3.6290    0.0000 C   0  0
    3.2335   -2.1297    0.0000 C   0  0
    4.5347   -1.3830    0.0000 C   0  0
    5.8314   -2.1371    0.0000 C   0  0
    0.6426    0.8996    0.0000 N   0  0
    1.9460    0.1469    0.0000 C   0  0
    1.9460   -1.3585    0.0000 C   0  0
    0.6426   -2.0562    0.0000 N   0  0
   -0.6609   -1.3585    0.0000 C   0  0
   -1.9460   -2.0562    0.0000 C   0  0
   -3.2678   -1.3585    0.0000 C   0  0
   -3.2678    0.1469    0.0000 C   0  0
   -1.9460    0.8996    0.0000 C   0  0
   -0.6609    0.1469    0.0000 C   0  0
    3.0843    1.1566    0.0000 C   0  0
    2.4601    2.5335    0.0000 C   0  0
    0.9547    2.3683    0.0000 C   0  0
    7.1257   -4.3889    0.0000 N   0  0
   -4.2955   -1.9782    0.0000 F   0  0
    8.1660   -3.7907    0.0000 C   0  0
    7.1240   -5.5889    0.0000 C   0  0
  1  2  1  0
  2  3  2  0
  3  4  1  0
  4  5  2  0
  5  6  1  0
  1  6  2  0
  7  8  1  0
  8  9  1  0
  9 10  2  0
 10 11  1  0
 11 12  1  0
 12 13  2  0
 13 14  1  0
 14 15  2  0
 15 16  1  0
  7 16  1  0
 11 16  2  0
 17 18  1  0
 18 19  2  0
  7 19  1  0
  8 17  2  0
  4  9  1  0
  1 20  1  0
 13 21  1  0
 20 22  1  0
 20 23  1  0
M  END
> <From>
www.bindingDB.org

> <BindingDB Reactant_set_id>
50504710

> <Ligand InChI>
InChI=1S/C19H16FN3/c1-22(2)15-8-5-13(6-9-15)19-18-4-3-11-23(18)17-10-7-14(20)12-16(17)21-19/h3-12H,1-2H3

> <Ligand InChI Key>
PKPPHRMTUZJAGX-UHFFFAOYSA-N

> <BindingDB MonomerID>
50184345

> <BindingDB Ligand Name>
CHEMBL3822797

> <Target Name>
DNA repair protein RAD51 homolog 1

> <Target Source Organism According to Curator or DataSource>
Homo sapiens

> <Ki (nM)>


> <IC50 (nM)>
>100000

> <Kd (nM)>


> <EC50 (nM)>


> <kon (M-1-s-1)>


> <koff (s-1)>


> <pH>


> <Temp C>


> <Curation/DataSource>
ChEMBL

> <Article DOI>
10.1021/acs.jmedchem.5b01762

> <BindingDB Entry DOI>
10.7270/Q200041Q

> <PMID>
27049177

> <PubChem AID>


> <Patent Number>


> <Authors>
Lv, W; Budke, B; Pawlowski, M; Connell, PP; Kozikowski, AP

> <Date of publication>
5/26/2016

> <Date in BindingDB>
10/1/2017

> <Institution>
University of Illinois at Chicago

> <Link to Ligand in BindingDB>
http://www.bindingdb.org/bind/chemsearch/marvin/MolStructure.jsp?monomerid=50184345

> <Link to Ligand-Target Pair in BindingDB>
http://www.bindingdb.org/jsp/dbsearch/PrimarySearch_ki.jsp?energyterm=kJ/mole&tag=pol&polymerid=4676&target=DNA+repair+protein+RAD51+homolog+1&column=ki&startPg=0&Increment=50&submit=Search

> <Link to Ligand-Target Pair in BindingDB>
http://www.bindingdb.org/jsp/dbsearch/PrimarySearch_ki.jsp?energyterm=kJ/mole&tag=r21&monomerid=50184345&enzyme=DNA+repair+protein+RAD51+homolog+1&column=ki&startPg=0&Increment=50&submit=Search

> <Ligand HET ID in PDB>


> <PDB ID(s) for Ligand-Target Complex>


> <PubChem CID of Ligand>
127050409

> <PubChem SID of Ligand>
346550369

> <ChEBI ID of Ligand>


> <ChEMBL ID of Ligand>
CHEMBL3822797

> <DrugBank ID of Ligand>


> <IUPHAR_GRAC ID of Ligand>


> <KEGG ID of Ligand>


> <ZINC ID of Ligand>


> <Number of Protein Chains in Target (bigger than 1 implies a multichain complex)>
1

> <BindingDB Target Chain Sequence>
MAMQMQLEANADTSVEEESFGPQPISRLEQCGINANDVKKLEEAGFHTVEAVAYAPKKELINIKGISEAKADKILAEAAKLVPMGFTTATEFHQRRSEIIQITTGSKELDKLLQGGIETGSITEMFGEFRTGKTQICHTLAVTCQLPIDRGGGEGKAMYIDTEGTFRPERLLAVAERYGLSGSDVLDNVAYARAFNTDHQTQLLYQASAMMVESRYALLIVDSATALYRTDYSGRGELSARQMHLARFLRMLLRLADEFGVAVVITNQVVAQVDGAAMFAADPKKPIGGNIIAHASTTRLYLRKGRGETRICKIYDSPCLPEAEAMFAINADGVGDAKD

> <PDB ID(s) of Target Chain>
1N0W,5JZC,5NP7,5NWL,8BQ2,8BR2,8BSC

> <UniProt (SwissProt) Recommended Name of Target Chain>
DNA repair protein RAD51 homolog 1

> <UniProt (SwissProt) Entry Name of Target Chain>
RAD51_HUMAN

> <UniProt (SwissProt) Primary ID of Target Chain>
Q06609

> <UniProt (SwissProt) Secondary ID(s) of Target Chain>
B0FXP0 B2R8T6 Q6FHX9 Q6ZNA8 Q9BV60

> <UniProt (SwissProt) Alternative ID(s) of Target Chain>


> <UniProt (TrEMBL) Submitted Name of Target Chain>


> <UniProt (TrEMBL) Entry Name of Target Chain>


> <UniProt (TrEMBL) Primary ID of Target Chain>


> <UniProt (TrEMBL) Secondary ID(s) of Target Chain>


> <UniProt (TrEMBL) Alternative ID(s) of Target Chain>


$$$$

  SciTegic12211613302D

 22 25  0  0  0  0            999 V2000
    5.8267   -3.6371    0.0000 C   0  0
    4.5254   -4.3830    0.0000 C   0  0
    3.2287   -3.6290    0.0000 C   0  0
    3.2335   -2.1297    0.0000 C   0  0
    4.5347   -1.3830    0.0000 C   0  0
    5.8314   -2.1371    0.0000 C   0  0
    0.6426    0.8996    0.0000 N   0  0
    1.9460    0.1469    0.0000 C   0  0
    1.9460   -1.3585    0.0000 C   0  0
    0.6426   -2.0562    0.0000 N   0  0
   -0.6609   -1.3585    0.0000 C   0  0
   -1.9460   -2.0562    0.0000 C   0  0
   -3.2678   -1.3585    0.0000 C   0  0
   -3.2678    0.1469    0.0000 C   0  0
   -1.9460    0.8996    0.0000 C   0  0
   -0.6609    0.1469    0.0000 C   0  0
    3.0843    1.1566    0.0000 C   0  0
    2.4601    2.5335    0.0000 C   0  0
    0.9547    2.3683    0.0000 C   0  0
    6.8641   -4.2403    0.0000 N   0  0
   -4.2955   -1.9782    0.0000 F   0  0
   -4.3053    0.7500    0.0000 F   0  0
  1  2  1  0
  2  3  2  0
  3  4  1  0
  4  5  2  0
  5  6  1  0
  1  6  2  0
  7  8  1  0
  8  9  1  0
  9 10  2  0
 10 11  1  0
 11 12  1  0
 12 13  2  0
 13 14  1  0
 14 15  2  0
 15 16  1  0
  7 16  1  0
 11 16  2  0
 17 18  1  0
 18 19  2  0
  7 19  1  0
  8 17  2  0
  4  9  1  0
  1 20  1  0
 13 21  1  0
 14 22  1  0
M  END
> <From>
www.bindingDB.org

> <BindingDB Reactant_set_id>
50504711

> <Ligand InChI>
InChI=1S/C17H11F2N3/c18-12-8-14-16(9-13(12)19)22-7-1-2-15(22)17(21-14)10-3-5-11(20)6-4-10/h1-9H,20H2

> <Ligand InChI Key>
HRXNUKWKUZJZJG-UHFFFAOYSA-N

> <BindingDB MonomerID>
50184372

> <BindingDB Ligand Name>
CHEMBL3823795

> <Target Name>
DNA repair protein RAD51 homolog 1

> <Target Source Organism According to Curator or DataSource>
Homo sapiens

> <Ki (nM)>


> <IC50 (nM)>
 34000

> <Kd (nM)>


> <EC50 (nM)>


> <kon (M-1-s-1)>


> <koff (s-1)>


> <pH>


> <Temp C>


> <Curation/DataSource>
ChEMBL

> <Article DOI>
10.1021/acs.jmedchem.5b01762

> <BindingDB Entry DOI>
10.7270/Q200041Q

> <PMID>
27049177

> <PubChem AID>


> <Patent Number>


> <Authors>
Lv, W; Budke, B; Pawlowski, M; Connell, PP; Kozikowski, AP

> <Date of publication>
5/26/2016

> <Date in BindingDB>
10/1/2017

> <Institution>
University of Illinois at Chicago

> <Link to Ligand in BindingDB>
http://www.bindingdb.org/bind/chemsearch/marvin/MolStructure.jsp?monomerid=50184372

> <Link to Ligand-Target Pair in BindingDB>
http://www.bindingdb.org/jsp/dbsearch/PrimarySearch_ki.jsp?energyterm=kJ/mole&tag=pol&polymerid=4676&target=DNA+repair+protein+RAD51+homolog+1&column=ki&startPg=0&Increment=50&submit=Search

> <Link to Ligand-Target Pair in BindingDB>
http://www.bindingdb.org/jsp/dbsearch/PrimarySearch_ki.jsp?energyterm=kJ/mole&tag=r21&monomerid=50184372&enzyme=DNA+repair+protein+RAD51+homolog+1&column=ki&startPg=0&Increment=50&submit=Search

> <Ligand HET ID in PDB>


> <PDB ID(s) for Ligand-Target Complex>


> <PubChem CID of Ligand>
127050410

> <PubChem SID of Ligand>
346550370

> <ChEBI ID of Ligand>


> <ChEMBL ID of Ligand>
CHEMBL3823795

> <DrugBank ID of Ligand>


> <IUPHAR_GRAC ID of Ligand>


> <KEGG ID of Ligand>


> <ZINC ID of Ligand>


> <Number of Protein Chains in Target (bigger than 1 implies a multichain complex)>
1

> <BindingDB Target Chain Sequence>
MAMQMQLEANADTSVEEESFGPQPISRLEQCGINANDVKKLEEAGFHTVEAVAYAPKKELINIKGISEAKADKILAEAAKLVPMGFTTATEFHQRRSEIIQITTGSKELDKLLQGGIETGSITEMFGEFRTGKTQICHTLAVTCQLPIDRGGGEGKAMYIDTEGTFRPERLLAVAERYGLSGSDVLDNVAYARAFNTDHQTQLLYQASAMMVESRYALLIVDSATALYRTDYSGRGELSARQMHLARFLRMLLRLADEFGVAVVITNQVVAQVDGAAMFAADPKKPIGGNIIAHASTTRLYLRKGRGETRICKIYDSPCLPEAEAMFAINADGVGDAKD

> <PDB ID(s) of Target Chain>
1N0W,5JZC,5NP7,5NWL,8BQ2,8BR2,8BSC

> <UniProt (SwissProt) Recommended Name of Target Chain>
DNA repair protein RAD51 homolog 1

> <UniProt (SwissProt) Entry Name of Target Chain>
RAD51_HUMAN

> <UniProt (SwissProt) Primary ID of Target Chain>
Q06609

> <UniProt (SwissProt) Secondary ID(s) of Target Chain>
B0FXP0 B2R8T6 Q6FHX9 Q6ZNA8 Q9BV60

> <UniProt (SwissProt) Alternative ID(s) of Target Chain>


> <UniProt (TrEMBL) Submitted Name of Target Chain>


> <UniProt (TrEMBL) Entry Name of Target Chain>


> <UniProt (TrEMBL) Primary ID of Target Chain>


> <UniProt (TrEMBL) Secondary ID(s) of Target Chain>


> <UniProt (TrEMBL) Alternative ID(s) of Target Chain>


$$$$

  SciTegic12211613302D

 24 27  0  0  0  0            999 V2000
    5.8267   -3.6371    0.0000 C   0  0
    4.5254   -4.3830    0.0000 C   0  0
    3.2287   -3.6290    0.0000 C   0  0
    3.2335   -2.1297    0.0000 C   0  0
    4.5347   -1.3830    0.0000 C   0  0
    5.8314   -2.1371    0.0000 C   0  0
    0.6426    0.8996    0.0000 N   0  0
    1.9460    0.1469    0.0000 C   0  0
    1.9460   -1.3585    0.0000 C   0  0
    0.6426   -2.0562    0.0000 N   0  0
   -0.6609   -1.3585    0.0000 C   0  0
   -1.9460   -2.0562    0.0000 C   0  0
   -3.2678   -1.3585    0.0000 C   0  0
   -3.2678    0.1469    0.0000 C   0  0
   -1.9460    0.8996    0.0000 C   0  0
   -0.6609    0.1469    0.0000 C   0  0
    3.0843    1.1566    0.0000 C   0  0
    2.4601    2.5335    0.0000 C   0  0
    0.9547    2.3683    0.0000 C   0  0
    7.1257   -4.3889    0.0000 N   0  0
   -4.2955   -1.9782    0.0000 F   0  0
   -4.3053    0.7500    0.0000 F   0  0
    8.1660   -3.7907    0.0000 C   0  0
    7.1240   -5.5889    0.0000 C   0  0
  1  2  1  0
  2  3  2  0
  3  4  1  0
  4  5  2  0
  5  6  1  0
  1  6  2  0
  7  8  1  0
  8  9  1  0
  9 10  2  0
 10 11  1  0
 11 12  1  0
 12 13  2  0
 13 14  1  0
 14 15  2  0
 15 16  1  0
  7 16  1  0
 11 16  2  0
 17 18  1  0
 18 19  2  0
  7 19  1  0
  8 17  2  0
  4  9  1  0
  1 20  1  0
 13 21  1  0
 14 22  1  0
 20 23  1  0
 20 24  1  0
M  END
> <From>
www.bindingDB.org

> <BindingDB Reactant_set_id>
50504712

> <Ligand InChI>
InChI=1S/C19H15F2N3/c1-23(2)13-7-5-12(6-8-13)19-17-4-3-9-24(17)18-11-15(21)14(20)10-16(18)22-19/h3-11H,1-2H3

> <Ligand InChI Key>
IHDWUIQNOQGMKF-UHFFFAOYSA-N

> <BindingDB MonomerID>
50184373

> <BindingDB Ligand Name>
CHEMBL3823840

> <Target Name>
DNA repair protein RAD51 homolog 1

> <Target Source Organism According to Curator or DataSource>
Homo sapiens

> <Ki (nM)>


> <IC50 (nM)>
>100000

> <Kd (nM)>


> <EC50 (nM)>


> <kon (M-1-s-1)>


> <koff (s-1)>


> <pH>


> <Temp C>


> <Curation/DataSource>
ChEMBL

> <Article DOI>
10.1021/acs.jmedchem.5b01762

> <BindingDB Entry DOI>
10.7270/Q200041Q

> <PMID>
27049177

> <PubChem AID>


> <Patent Number>


> <Authors>
Lv, W; Budke, B; Pawlowski, M; Connell, PP; Kozikowski, AP

> <Date of publication>
5/26/2016

> <Date in BindingDB>
10/1/2017

> <Institution>
University of Illinois at Chicago

> <Link to Ligand in BindingDB>
http://www.bindingdb.org/bind/chemsearch/marvin/MolStructure.jsp?monomerid=50184373

> <Link to Ligand-Target Pair in BindingDB>
http://www.bindingdb.org/jsp/dbsearch/PrimarySearch_ki.jsp?energyterm=kJ/mole&tag=pol&polymerid=4676&target=DNA+repair+protein+RAD51+homolog+1&column=ki&startPg=0&Increment=50&submit=Search

> <Link to Ligand-Target Pair in BindingDB>
http://www.bindingdb.org/jsp/dbsearch/PrimarySearch_ki.jsp?energyterm=kJ/mole&tag=r21&monomerid=50184373&enzyme=DNA+repair+protein+RAD51+homolog+1&column=ki&startPg=0&Increment=50&submit=Search

> <Ligand HET ID in PDB>


> <PDB ID(s) for Ligand-Target Complex>


> <PubChem CID of Ligand>
127050411

> <PubChem SID of Ligand>
346550371

> <ChEBI ID of Ligand>


> <ChEMBL ID of Ligand>
CHEMBL3823840

> <DrugBank ID of Ligand>


> <IUPHAR_GRAC ID of Ligand>


> <KEGG ID of Ligand>


> <ZINC ID of Ligand>


> <Number of Protein Chains in Target (bigger than 1 implies a multichain complex)>
1

> <BindingDB Target Chain Sequence>
MAMQMQLEANADTSVEEESFGPQPISRLEQCGINANDVKKLEEAGFHTVEAVAYAPKKELINIKGISEAKADKILAEAAKLVPMGFTTATEFHQRRSEIIQITTGSKELDKLLQGGIETGSITEMFGEFRTGKTQICHTLAVTCQLPIDRGGGEGKAMYIDTEGTFRPERLLAVAERYGLSGSDVLDNVAYARAFNTDHQTQLLYQASAMMVESRYALLIVDSATALYRTDYSGRGELSARQMHLARFLRMLLRLADEFGVAVVITNQVVAQVDGAAMFAADPKKPIGGNIIAHASTTRLYLRKGRGETRICKIYDSPCLPEAEAMFAINADGVGDAKD

> <PDB ID(s) of Target Chain>
1N0W,5JZC,5NP7,5NWL,8BQ2,8BR2,8BSC

> <UniProt (SwissProt) Recommended Name of Target Chain>
DNA repair protein RAD51 homolog 1

> <UniProt (SwissProt) Entry Name of Target Chain>
RAD51_HUMAN

> <UniProt (SwissProt) Primary ID of Target Chain>
Q06609

> <UniProt (SwissProt) Secondary ID(s) of Target Chain>
B0FXP0 B2R8T6 Q6FHX9 Q6ZNA8 Q9BV60

> <UniProt (SwissProt) Alternative ID(s) of Target Chain>


> <UniProt (TrEMBL) Submitted Name of Target Chain>


> <UniProt (TrEMBL) Entry Name of Target Chain>


> <UniProt (TrEMBL) Primary ID of Target Chain>


> <UniProt (TrEMBL) Secondary ID(s) of Target Chain>


> <UniProt (TrEMBL) Alternative ID(s) of Target Chain>


$$$$

  SciTegic12211613302D

 21 24  0  0  0  0            999 V2000
    0.6426    0.8996    0.0000 N   0  0
    1.9460    0.1469    0.0000 C   0  0
    1.9460   -1.3585    0.0000 C   0  0
    0.6426   -2.0562    0.0000 N   0  0
   -0.6609   -1.3585    0.0000 C   0  0
   -1.9460   -2.0562    0.0000 C   0  0
   -3.2678   -1.3585    0.0000 C   0  0
   -3.2678    0.1469    0.0000 C   0  0
   -1.9460    0.8996    0.0000 C   0  0
   -0.6609    0.1469    0.0000 C   0  0
    3.0843    1.1566    0.0000 C   0  0
    2.4601    2.5335    0.0000 C   0  0
    0.9547    2.3683    0.0000 C   0  0
    3.2287   -3.6290    0.0000 C   0  0
    3.2335   -2.1297    0.0000 C   0  0
    4.5347   -1.3830    0.0000 C   0  0
    5.8314   -2.1371    0.0000 C   0  0
    5.8267   -3.6371    0.0000 C   0  0
    4.5254   -4.3830    0.0000 N   0  0
   -4.5529   -2.1330    0.0000 O   0  0
   -5.6036   -1.5533    0.0000 C   0  0
  1  2  1  0
  2  3  1  0
  3  4  2  0
  4  5  1  0
  5  6  1  0
  6  7  2  0
  7  8  1  0
  8  9  2  0
  9 10  1  0
  1 10  1  0
  5 10  2  0
 11 12  1  0
 12 13  2  0
  1 13  1  0
  2 11  2  0
 14 15  1  0
 15 16  2  0
 16 17  1  0
 17 18  2  0
 18 19  1  0
 14 19  2  0
  3 15  1  0
 20 21  1  0
  7 20  1  0
M  END
> <From>
www.bindingDB.org

> <BindingDB Reactant_set_id>
50504713

> <Ligand InChI>
InChI=1S/C17H13N3O/c1-21-13-6-7-15-14(10-13)19-17(12-4-2-8-18-11-12)16-5-3-9-20(15)16/h2-11H,1H3

> <Ligand InChI Key>
YOTHGRKRTYTRSN-UHFFFAOYSA-N

> <BindingDB MonomerID>
50184374

> <BindingDB Ligand Name>
CHEMBL3823248

> <Target Name>
DNA repair protein RAD51 homolog 1

> <Target Source Organism According to Curator or DataSource>
Homo sapiens

> <Ki (nM)>


> <IC50 (nM)>
 38600

> <Kd (nM)>


> <EC50 (nM)>


> <kon (M-1-s-1)>


> <koff (s-1)>


> <pH>


> <Temp C>


> <Curation/DataSource>
ChEMBL

> <Article DOI>
10.1021/acs.jmedchem.5b01762

> <BindingDB Entry DOI>
10.7270/Q200041Q

> <PMID>
27049177

> <PubChem AID>


> <Patent Number>


> <Authors>
Lv, W; Budke, B; Pawlowski, M; Connell, PP; Kozikowski, AP

> <Date of publication>
5/26/2016

> <Date in BindingDB>
10/1/2017

> <Institution>
University of Illinois at Chicago

> <Link to Ligand in BindingDB>
http://www.bindingdb.org/bind/chemsearch/marvin/MolStructure.jsp?monomerid=50184374

> <Link to Ligand-Target Pair in BindingDB>
http://www.bindingdb.org/jsp/dbsearch/PrimarySearch_ki.jsp?energyterm=kJ/mole&tag=pol&polymerid=4676&target=DNA+repair+protein+RAD51+homolog+1&column=ki&startPg=0&Increment=50&submit=Search

> <Link to Ligand-Target Pair in BindingDB>
http://www.bindingdb.org/jsp/dbsearch/PrimarySearch_ki.jsp?energyterm=kJ/mole&tag=r21&monomerid=50184374&enzyme=DNA+repair+protein+RAD51+homolog+1&column=ki&startPg=0&Increment=50&submit=Search

> <Ligand HET ID in PDB>


> <PDB ID(s) for Ligand-Target Complex>


> <PubChem CID of Ligand>
127050412

> <PubChem SID of Ligand>
346550372

> <ChEBI ID of Ligand>


> <ChEMBL ID of Ligand>
CHEMBL3823248

> <DrugBank ID of Ligand>


> <IUPHAR_GRAC ID of Ligand>


> <KEGG ID of Ligand>


> <ZINC ID of Ligand>


> <Number of Protein Chains in Target (bigger than 1 implies a multichain complex)>
1

> <BindingDB Target Chain Sequence>
MAMQMQLEANADTSVEEESFGPQPISRLEQCGINANDVKKLEEAGFHTVEAVAYAPKKELINIKGISEAKADKILAEAAKLVPMGFTTATEFHQRRSEIIQITTGSKELDKLLQGGIETGSITEMFGEFRTGKTQICHTLAVTCQLPIDRGGGEGKAMYIDTEGTFRPERLLAVAERYGLSGSDVLDNVAYARAFNTDHQTQLLYQASAMMVESRYALLIVDSATALYRTDYSGRGELSARQMHLARFLRMLLRLADEFGVAVVITNQVVAQVDGAAMFAADPKKPIGGNIIAHASTTRLYLRKGRGETRICKIYDSPCLPEAEAMFAINADGVGDAKD

> <PDB ID(s) of Target Chain>
1N0W,5JZC,5NP7,5NWL,8BQ2,8BR2,8BSC

> <UniProt (SwissProt) Recommended Name of Target Chain>
DNA repair protein RAD51 homolog 1

> <UniProt (SwissProt) Entry Name of Target Chain>
RAD51_HUMAN

> <UniProt (SwissProt) Primary ID of Target Chain>
Q06609

> <UniProt (SwissProt) Secondary ID(s) of Target Chain>
B0FXP0 B2R8T6 Q6FHX9 Q6ZNA8 Q9BV60

> <UniProt (SwissProt) Alternative ID(s) of Target Chain>


> <UniProt (TrEMBL) Submitted Name of Target Chain>


> <UniProt (TrEMBL) Entry Name of Target Chain>


> <UniProt (TrEMBL) Primary ID of Target Chain>


> <UniProt (TrEMBL) Secondary ID(s) of Target Chain>


> <UniProt (TrEMBL) Alternative ID(s) of Target Chain>


$$$$

  SciTegic12211613302D

 20 23  0  0  0  0            999 V2000
    0.6426    0.8996    0.0000 N   0  0
    1.9460    0.1469    0.0000 C   0  0
    1.9460   -1.3585    0.0000 C   0  0
    0.6426   -2.0562    0.0000 N   0  0
   -0.6609   -1.3585    0.0000 C   0  0
   -1.9460   -2.0562    0.0000 C   0  0
   -3.2678   -1.3585    0.0000 C   0  0
   -3.2678    0.1469    0.0000 C   0  0
   -1.9460    0.8996    0.0000 C   0  0
   -0.6609    0.1469    0.0000 C   0  0
    3.0843    1.1566    0.0000 C   0  0
    2.4601    2.5335    0.0000 C   0  0
    0.9547    2.3683    0.0000 C   0  0
    3.2287   -3.6290    0.0000 C   0  0
    3.2335   -2.1297    0.0000 C   0  0
    4.5347   -1.3830    0.0000 C   0  0
    5.8314   -2.1371    0.0000 C   0  0
    5.8267   -3.6371    0.0000 C   0  0
    4.5254   -4.3830    0.0000 N   0  0
   -4.2955   -1.9782    0.0000 O   0  0
  1  2  1  0
  2  3  1  0
  3  4  2  0
  4  5  1  0
  5  6  1  0
  6  7  2  0
  7  8  1  0
  8  9  2  0
  9 10  1  0
  1 10  1  0
  5 10  2  0
 11 12  1  0
 12 13  2  0
  1 13  1  0
  2 11  2  0
 14 15  1  0
 15 16  2  0
 16 17  1  0
 17 18  2  0
 18 19  1  0
 14 19  2  0
  3 15  1  0
  7 20  1  0
M  END
> <From>
www.bindingDB.org

> <BindingDB Reactant_set_id>
50504714

> <Ligand InChI>
InChI=1S/C16H11N3O/c20-12-5-6-14-13(9-12)18-16(11-3-1-7-17-10-11)15-4-2-8-19(14)15/h1-10,20H

> <Ligand InChI Key>
ADKDYYZWEJOUDT-UHFFFAOYSA-N

> <BindingDB MonomerID>
50184375

> <BindingDB Ligand Name>
CHEMBL3823341

> <Target Name>
DNA repair protein RAD51 homolog 1

> <Target Source Organism According to Curator or DataSource>
Homo sapiens

> <Ki (nM)>


> <IC50 (nM)>
 64900

> <Kd (nM)>


> <EC50 (nM)>


> <kon (M-1-s-1)>


> <koff (s-1)>


> <pH>


> <Temp C>


> <Curation/DataSource>
ChEMBL

> <Article DOI>
10.1021/acs.jmedchem.5b01762

> <BindingDB Entry DOI>
10.7270/Q200041Q

> <PMID>
27049177

> <PubChem AID>


> <Patent Number>


> <Authors>
Lv, W; Budke, B; Pawlowski, M; Connell, PP; Kozikowski, AP

> <Date of publication>
5/26/2016

> <Date in BindingDB>
10/1/2017

> <Institution>
University of Illinois at Chicago

> <Link to Ligand in BindingDB>
http://www.bindingdb.org/bind/chemsearch/marvin/MolStructure.jsp?monomerid=50184375

> <Link to Ligand-Target Pair in BindingDB>
http://www.bindingdb.org/jsp/dbsearch/PrimarySearch_ki.jsp?energyterm=kJ/mole&tag=pol&polymerid=4676&target=DNA+repair+protein+RAD51+homolog+1&column=ki&startPg=0&Increment=50&submit=Search

> <Link to Ligand-Target Pair in BindingDB>
http://www.bindingdb.org/jsp/dbsearch/PrimarySearch_ki.jsp?energyterm=kJ/mole&tag=r21&monomerid=50184375&enzyme=DNA+repair+protein+RAD51+homolog+1&column=ki&startPg=0&Increment=50&submit=Search

> <Ligand HET ID in PDB>


> <PDB ID(s) for Ligand-Target Complex>


> <PubChem CID of Ligand>
127049243

> <PubChem SID of Ligand>
346550373

> <ChEBI ID of Ligand>


> <ChEMBL ID of Ligand>
CHEMBL3823341

> <DrugBank ID of Ligand>


> <IUPHAR_GRAC ID of Ligand>


> <KEGG ID of Ligand>


> <ZINC ID of Ligand>


> <Number of Protein Chains in Target (bigger than 1 implies a multichain complex)>
1

> <BindingDB Target Chain Sequence>
MAMQMQLEANADTSVEEESFGPQPISRLEQCGINANDVKKLEEAGFHTVEAVAYAPKKELINIKGISEAKADKILAEAAKLVPMGFTTATEFHQRRSEIIQITTGSKELDKLLQGGIETGSITEMFGEFRTGKTQICHTLAVTCQLPIDRGGGEGKAMYIDTEGTFRPERLLAVAERYGLSGSDVLDNVAYARAFNTDHQTQLLYQASAMMVESRYALLIVDSATALYRTDYSGRGELSARQMHLARFLRMLLRLADEFGVAVVITNQVVAQVDGAAMFAADPKKPIGGNIIAHASTTRLYLRKGRGETRICKIYDSPCLPEAEAMFAINADGVGDAKD

> <PDB ID(s) of Target Chain>
1N0W,5JZC,5NP7,5NWL,8BQ2,8BR2,8BSC

> <UniProt (SwissProt) Recommended Name of Target Chain>
DNA repair protein RAD51 homolog 1

> <UniProt (SwissProt) Entry Name of Target Chain>
RAD51_HUMAN

> <UniProt (SwissProt) Primary ID of Target Chain>
Q06609

> <UniProt (SwissProt) Secondary ID(s) of Target Chain>
B0FXP0 B2R8T6 Q6FHX9 Q6ZNA8 Q9BV60

> <UniProt (SwissProt) Alternative ID(s) of Target Chain>


> <UniProt (TrEMBL) Submitted Name of Target Chain>


> <UniProt (TrEMBL) Entry Name of Target Chain>


> <UniProt (TrEMBL) Primary ID of Target Chain>


> <UniProt (TrEMBL) Secondary ID(s) of Target Chain>


> <UniProt (TrEMBL) Alternative ID(s) of Target Chain>


$$$$

  SciTegic12211613302D

 24 27  0  0  0  0            999 V2000
    6.8641   -4.2403    0.0000 N   0  0
    5.8267   -3.6371    0.0000 C   0  0
    4.5254   -4.3830    0.0000 C   0  0
    3.2287   -3.6290    0.0000 C   0  0
    3.2335   -2.1297    0.0000 C   0  0
    4.5347   -1.3830    0.0000 C   0  0
    5.8314   -2.1371    0.0000 C   0  0
    0.6426    0.8996    0.0000 N   0  0
    1.9460    0.1469    0.0000 C   0  0
    1.9460   -1.3585    0.0000 C   0  0
    0.6426   -2.0562    0.0000 N   0  0
   -0.6609   -1.3585    0.0000 C   0  0
   -1.9460   -2.0562    0.0000 C   0  0
   -3.2678   -1.3585    0.0000 C   0  0
   -3.2678    0.1469    0.0000 C   0  0
   -1.9460    0.8996    0.0000 C   0  0
   -0.6609    0.1469    0.0000 C   0  0
    3.0843    1.1566    0.0000 C   0  0
    2.4601    2.5335    0.0000 C   0  0
    0.9547    2.3683    0.0000 C   0  0
   -4.5529   -2.1330    0.0000 O   0  0
   -5.8670   -1.4080    0.0000 C   0  0
   -7.1524   -2.1828    0.0000 C   0  0
   -8.2031   -1.6031    0.0000 C   0  0
  1  2  1  0
  2  3  1  0
  3  4  2  0
  4  5  1  0
  5  6  2  0
  6  7  1  0
  2  7  2  0
  8  9  1  0
  9 10  1  0
 10 11  2  0
 11 12  1  0
 12 13  1  0
 13 14  2  0
 14 15  1  0
 15 16  2  0
 16 17  1  0
  8 17  1  0
 12 17  2  0
 18 19  1  0
 19 20  2  0
  8 20  1  0
  9 18  2  0
 22 23  1  0
 23 24  1  0
 21 22  1  0
 14 21  1  0
  5 10  1  0
M  END
> <From>
www.bindingDB.org

> <BindingDB Reactant_set_id>
50504715

> <Ligand InChI>
InChI=1S/C20H19N3O/c1-2-12-24-16-9-10-18-17(13-16)22-20(19-4-3-11-23(18)19)14-5-7-15(21)8-6-14/h3-11,13H,2,12,21H2,1H3

> <Ligand InChI Key>
RPOVCOJZGZZWBS-UHFFFAOYSA-N

> <BindingDB MonomerID>
50184376

> <BindingDB Ligand Name>
CHEMBL3823178

> <Target Name>
DNA repair protein RAD51 homolog 1

> <Target Source Organism According to Curator or DataSource>
Homo sapiens

> <Ki (nM)>


> <IC50 (nM)>
 46100

> <Kd (nM)>


> <EC50 (nM)>


> <kon (M-1-s-1)>


> <koff (s-1)>


> <pH>


> <Temp C>


> <Curation/DataSource>
ChEMBL

> <Article DOI>
10.1021/acs.jmedchem.5b01762

> <BindingDB Entry DOI>
10.7270/Q200041Q

> <PMID>
27049177

> <PubChem AID>


> <Patent Number>


> <Authors>
Lv, W; Budke, B; Pawlowski, M; Connell, PP; Kozikowski, AP

> <Date of publication>
5/26/2016

> <Date in BindingDB>
10/1/2017

> <Institution>
University of Illinois at Chicago

> <Link to Ligand in BindingDB>
http://www.bindingdb.org/bind/chemsearch/marvin/MolStructure.jsp?monomerid=50184376

> <Link to Ligand-Target Pair in BindingDB>
http://www.bindingdb.org/jsp/dbsearch/PrimarySearch_ki.jsp?energyterm=kJ/mole&tag=pol&polymerid=4676&target=DNA+repair+protein+RAD51+homolog+1&column=ki&startPg=0&Increment=50&submit=Search

> <Link to Ligand-Target Pair in BindingDB>
http://www.bindingdb.org/jsp/dbsearch/PrimarySearch_ki.jsp?energyterm=kJ/mole&tag=r21&monomerid=50184376&enzyme=DNA+repair+protein+RAD51+homolog+1&column=ki&startPg=0&Increment=50&submit=Search

> <Ligand HET ID in PDB>


> <PDB ID(s) for Ligand-Target Complex>


> <PubChem CID of Ligand>
127050413

> <PubChem SID of Ligand>
346550374

> <ChEBI ID of Ligand>


> <ChEMBL ID of Ligand>
CHEMBL3823178

> <DrugBank ID of Ligand>


> <IUPHAR_GRAC ID of Ligand>


> <KEGG ID of Ligand>


> <ZINC ID of Ligand>


> <Number of Protein Chains in Target (bigger than 1 implies a multichain complex)>
1

> <BindingDB Target Chain Sequence>
MAMQMQLEANADTSVEEESFGPQPISRLEQCGINANDVKKLEEAGFHTVEAVAYAPKKELINIKGISEAKADKILAEAAKLVPMGFTTATEFHQRRSEIIQITTGSKELDKLLQGGIETGSITEMFGEFRTGKTQICHTLAVTCQLPIDRGGGEGKAMYIDTEGTFRPERLLAVAERYGLSGSDVLDNVAYARAFNTDHQTQLLYQASAMMVESRYALLIVDSATALYRTDYSGRGELSARQMHLARFLRMLLRLADEFGVAVVITNQVVAQVDGAAMFAADPKKPIGGNIIAHASTTRLYLRKGRGETRICKIYDSPCLPEAEAMFAINADGVGDAKD

> <PDB ID(s) of Target Chain>
1N0W,5JZC,5NP7,5NWL,8BQ2,8BR2,8BSC

> <UniProt (SwissProt) Recommended Name of Target Chain>
DNA repair protein RAD51 homolog 1

> <UniProt (SwissProt) Entry Name of Target Chain>
RAD51_HUMAN

> <UniProt (SwissProt) Primary ID of Target Chain>
Q06609

> <UniProt (SwissProt) Secondary ID(s) of Target Chain>
B0FXP0 B2R8T6 Q6FHX9 Q6ZNA8 Q9BV60

> <UniProt (SwissProt) Alternative ID(s) of Target Chain>


> <UniProt (TrEMBL) Submitted Name of Target Chain>


> <UniProt (TrEMBL) Entry Name of Target Chain>


> <UniProt (TrEMBL) Primary ID of Target Chain>


> <UniProt (TrEMBL) Secondary ID(s) of Target Chain>


> <UniProt (TrEMBL) Alternative ID(s) of Target Chain>


$$$$

  SciTegic12211613302D

 24 27  0  0  0  0            999 V2000
    6.8641   -4.2403    0.0000 N   0  0
    5.8267   -3.6371    0.0000 C   0  0
    4.5254   -4.3830    0.0000 C   0  0
    3.2287   -3.6290    0.0000 C   0  0
    3.2335   -2.1297    0.0000 C   0  0
    4.5347   -1.3830    0.0000 C   0  0
    5.8314   -2.1371    0.0000 C   0  0
    0.6426    0.8996    0.0000 N   0  0
    1.9460    0.1469    0.0000 C   0  0
    1.9460   -1.3585    0.0000 C   0  0
    0.6426   -2.0562    0.0000 N   0  0
   -0.6609   -1.3585    0.0000 C   0  0
   -1.9460   -2.0562    0.0000 C   0  0
   -3.2678   -1.3585    0.0000 C   0  0
   -3.2678    0.1469    0.0000 C   0  0
   -1.9460    0.8996    0.0000 C   0  0
   -0.6609    0.1469    0.0000 C   0  0
    3.0843    1.1566    0.0000 C   0  0
    2.4601    2.5335    0.0000 C   0  0
    0.9547    2.3683    0.0000 C   0  0
   -4.5529   -2.1330    0.0000 O   0  0
   -5.8670   -1.4080    0.0000 C   0  0
   -7.1524   -2.1828    0.0000 C   0  0
   -8.2031   -1.6031    0.0000 F   0  0
  1  2  1  0
  2  3  1  0
  3  4  2  0
  4  5  1  0
  5  6  2  0
  6  7  1  0
  2  7  2  0
  8  9  1  0
  9 10  1  0
 10 11  2  0
 11 12  1  0
 12 13  1  0
 13 14  2  0
 14 15  1  0
 15 16  2  0
 16 17  1  0
  8 17  1  0
 12 17  2  0
 18 19  1  0
 19 20  2  0
  8 20  1  0
  9 18  2  0
 22 23  1  0
 21 22  1  0
 14 21  1  0
  5 10  1  0
 23 24  1  0
M  END
> <From>
www.bindingDB.org

> <BindingDB Reactant_set_id>
50504716

> <Ligand InChI>
InChI=1S/C19H16FN3O/c20-9-11-24-15-7-8-17-16(12-15)22-19(18-2-1-10-23(17)18)13-3-5-14(21)6-4-13/h1-8,10,12H,9,11,21H2

> <Ligand InChI Key>
BFTNTJNLVYKTOZ-UHFFFAOYSA-N

> <BindingDB MonomerID>
50184377

> <BindingDB Ligand Name>
CHEMBL3823807

> <Target Name>
DNA repair protein RAD51 homolog 1

> <Target Source Organism According to Curator or DataSource>
Homo sapiens

> <Ki (nM)>


> <IC50 (nM)>
 20000

> <Kd (nM)>


> <EC50 (nM)>


> <kon (M-1-s-1)>


> <koff (s-1)>


> <pH>


> <Temp C>


> <Curation/DataSource>
ChEMBL

> <Article DOI>
10.1021/acs.jmedchem.5b01762

> <BindingDB Entry DOI>
10.7270/Q200041Q

> <PMID>
27049177

> <PubChem AID>


> <Patent Number>


> <Authors>
Lv, W; Budke, B; Pawlowski, M; Connell, PP; Kozikowski, AP

> <Date of publication>
5/26/2016

> <Date in BindingDB>
10/1/2017

> <Institution>
University of Illinois at Chicago

> <Link to Ligand in BindingDB>
http://www.bindingdb.org/bind/chemsearch/marvin/MolStructure.jsp?monomerid=50184377

> <Link to Ligand-Target Pair in BindingDB>
http://www.bindingdb.org/jsp/dbsearch/PrimarySearch_ki.jsp?energyterm=kJ/mole&tag=pol&polymerid=4676&target=DNA+repair+protein+RAD51+homolog+1&column=ki&startPg=0&Increment=50&submit=Search

> <Link to Ligand-Target Pair in BindingDB>
http://www.bindingdb.org/jsp/dbsearch/PrimarySearch_ki.jsp?energyterm=kJ/mole&tag=r21&monomerid=50184377&enzyme=DNA+repair+protein+RAD51+homolog+1&column=ki&startPg=0&Increment=50&submit=Search

> <Ligand HET ID in PDB>


> <PDB ID(s) for Ligand-Target Complex>


> <PubChem CID of Ligand>
127052854

> <PubChem SID of Ligand>
346550375

> <ChEBI ID of Ligand>


> <ChEMBL ID of Ligand>
CHEMBL3823807

> <DrugBank ID of Ligand>


> <IUPHAR_GRAC ID of Ligand>


> <KEGG ID of Ligand>


> <ZINC ID of Ligand>


> <Number of Protein Chains in Target (bigger than 1 implies a multichain complex)>
1

> <BindingDB Target Chain Sequence>
MAMQMQLEANADTSVEEESFGPQPISRLEQCGINANDVKKLEEAGFHTVEAVAYAPKKELINIKGISEAKADKILAEAAKLVPMGFTTATEFHQRRSEIIQITTGSKELDKLLQGGIETGSITEMFGEFRTGKTQICHTLAVTCQLPIDRGGGEGKAMYIDTEGTFRPERLLAVAERYGLSGSDVLDNVAYARAFNTDHQTQLLYQASAMMVESRYALLIVDSATALYRTDYSGRGELSARQMHLARFLRMLLRLADEFGVAVVITNQVVAQVDGAAMFAADPKKPIGGNIIAHASTTRLYLRKGRGETRICKIYDSPCLPEAEAMFAINADGVGDAKD

> <PDB ID(s) of Target Chain>
1N0W,5JZC,5NP7,5NWL,8BQ2,8BR2,8BSC

> <UniProt (SwissProt) Recommended Name of Target Chain>
DNA repair protein RAD51 homolog 1

> <UniProt (SwissProt) Entry Name of Target Chain>
RAD51_HUMAN

> <UniProt (SwissProt) Primary ID of Target Chain>
Q06609

> <UniProt (SwissProt) Secondary ID(s) of Target Chain>
B0FXP0 B2R8T6 Q6FHX9 Q6ZNA8 Q9BV60

> <UniProt (SwissProt) Alternative ID(s) of Target Chain>


> <UniProt (TrEMBL) Submitted Name of Target Chain>


> <UniProt (TrEMBL) Entry Name of Target Chain>


> <UniProt (TrEMBL) Primary ID of Target Chain>


> <UniProt (TrEMBL) Secondary ID(s) of Target Chain>


> <UniProt (TrEMBL) Alternative ID(s) of Target Chain>


$$$$

  SciTegic12211613302D

 29 32  0  0  0  0            999 V2000
   -5.8899   -0.2082    0.0000 C   0  0
   -5.8670   -1.4080    0.0000 C   0  0
   -4.8395   -0.7881    0.0000 C   0  0
    7.1257   -4.3889    0.0000 N   0  0
    5.8267   -3.6371    0.0000 C   0  0
    4.5254   -4.3830    0.0000 C   0  0
    3.2287   -3.6290    0.0000 C   0  0
    3.2335   -2.1297    0.0000 C   0  0
    4.5347   -1.3830    0.0000 C   0  0
    5.8314   -2.1371    0.0000 C   0  0
    0.6426    0.8996    0.0000 N   0  0
    1.9460    0.1469    0.0000 C   0  0
    1.9460   -1.3585    0.0000 C   0  0
    0.6426   -2.0562    0.0000 N   0  0
   -0.6609   -1.3585    0.0000 C   0  0
   -1.9460   -2.0562    0.0000 C   0  0
   -3.2678   -1.3585    0.0000 C   0  0
   -3.2678    0.1469    0.0000 C   0  0
   -1.9460    0.8996    0.0000 C   0  0
   -0.6609    0.1469    0.0000 C   0  0
    3.0843    1.1566    0.0000 C   0  0
    2.4601    2.5335    0.0000 C   0  0
    0.9547    2.3683    0.0000 C   0  0
   -4.5529   -2.1330    0.0000 O   0  0
   -7.1524   -2.1828    0.0000 C   0  0
   -7.1294   -3.3825    0.0000 N   0  0
   -8.2031   -1.6031    0.0000 O   0  0
    8.1660   -3.7907    0.0000 C   0  0
    7.1240   -5.5889    0.0000 C   0  0
  2  1  1  0
  3  2  1  0
  4  5  1  0
  5  6  1  0
  6  7  2  0
  7  8  1  0
  8  9  2  0
  9 10  1  0
  5 10  2  0
 11 12  1  0
 12 13  1  0
 13 14  2  0
 14 15  1  0
 15 16  1  0
 16 17  2  0
 17 18  1  0
 18 19  2  0
 19 20  1  0
 11 20  1  0
 15 20  2  0
 21 22  1  0
 22 23  2  0
 11 23  1  0
 12 21  2  0
  2 25  1  0
 24  2  1  0
 17 24  1  0
  8 13  1  0
 25 26  1  0
 25 27  2  0
  4 28  1  0
  4 29  1  0
M  END
> <From>
www.bindingDB.org

> <BindingDB Reactant_set_id>
50504717

> <Ligand InChI>
InChI=1S/C23H24N4O2/c1-23(2,22(24)28)29-17-11-12-19-18(14-17)25-21(20-6-5-13-27(19)20)15-7-9-16(10-8-15)26(3)4/h5-14H,1-4H3,(H2,24,28)

> <Ligand InChI Key>
OZOGFUYFWCVJNW-UHFFFAOYSA-N

> <BindingDB MonomerID>
50184378

> <BindingDB Ligand Name>
CHEMBL3823654

> <Target Name>
DNA repair protein RAD51 homolog 1

> <Target Source Organism According to Curator or DataSource>
Homo sapiens

> <Ki (nM)>


> <IC50 (nM)>
>100000

> <Kd (nM)>


> <EC50 (nM)>


> <kon (M-1-s-1)>


> <koff (s-1)>


> <pH>


> <Temp C>


> <Curation/DataSource>
ChEMBL

> <Article DOI>
10.1021/acs.jmedchem.5b01762

> <BindingDB Entry DOI>
10.7270/Q200041Q

> <PMID>
27049177

> <PubChem AID>


> <Patent Number>


> <Authors>
Lv, W; Budke, B; Pawlowski, M; Connell, PP; Kozikowski, AP

> <Date of publication>
5/26/2016

> <Date in BindingDB>
10/1/2017

> <Institution>
University of Illinois at Chicago

> <Link to Ligand in BindingDB>
http://www.bindingdb.org/bind/chemsearch/marvin/MolStructure.jsp?monomerid=50184378

> <Link to Ligand-Target Pair in BindingDB>
http://www.bindingdb.org/jsp/dbsearch/PrimarySearch_ki.jsp?energyterm=kJ/mole&tag=pol&polymerid=4676&target=DNA+repair+protein+RAD51+homolog+1&column=ki&startPg=0&Increment=50&submit=Search

> <Link to Ligand-Target Pair in BindingDB>
http://www.bindingdb.org/jsp/dbsearch/PrimarySearch_ki.jsp?energyterm=kJ/mole&tag=r21&monomerid=50184378&enzyme=DNA+repair+protein+RAD51+homolog+1&column=ki&startPg=0&Increment=50&submit=Search

> <Ligand HET ID in PDB>


> <PDB ID(s) for Ligand-Target Complex>


> <PubChem CID of Ligand>
127052037

> <PubChem SID of Ligand>
346550376

> <ChEBI ID of Ligand>


> <ChEMBL ID of Ligand>
CHEMBL3823654

> <DrugBank ID of Ligand>


> <IUPHAR_GRAC ID of Ligand>


> <KEGG ID of Ligand>


> <ZINC ID of Ligand>


> <Number of Protein Chains in Target (bigger than 1 implies a multichain complex)>
1

> <BindingDB Target Chain Sequence>
MAMQMQLEANADTSVEEESFGPQPISRLEQCGINANDVKKLEEAGFHTVEAVAYAPKKELINIKGISEAKADKILAEAAKLVPMGFTTATEFHQRRSEIIQITTGSKELDKLLQGGIETGSITEMFGEFRTGKTQICHTLAVTCQLPIDRGGGEGKAMYIDTEGTFRPERLLAVAERYGLSGSDVLDNVAYARAFNTDHQTQLLYQASAMMVESRYALLIVDSATALYRTDYSGRGELSARQMHLARFLRMLLRLADEFGVAVVITNQVVAQVDGAAMFAADPKKPIGGNIIAHASTTRLYLRKGRGETRICKIYDSPCLPEAEAMFAINADGVGDAKD

> <PDB ID(s) of Target Chain>
1N0W,5JZC,5NP7,5NWL,8BQ2,8BR2,8BSC

> <UniProt (SwissProt) Recommended Name of Target Chain>
DNA repair protein RAD51 homolog 1

> <UniProt (SwissProt) Entry Name of Target Chain>
RAD51_HUMAN

> <UniProt (SwissProt) Primary ID of Target Chain>
Q06609

> <UniProt (SwissProt) Secondary ID(s) of Target Chain>
B0FXP0 B2R8T6 Q6FHX9 Q6ZNA8 Q9BV60

> <UniProt (SwissProt) Alternative ID(s) of Target Chain>


> <UniProt (TrEMBL) Submitted Name of Target Chain>


> <UniProt (TrEMBL) Entry Name of Target Chain>


> <UniProt (TrEMBL) Primary ID of Target Chain>


> <UniProt (TrEMBL) Secondary ID(s) of Target Chain>


> <UniProt (TrEMBL) Alternative ID(s) of Target Chain>


$$$$

  SciTegic11261411082D

 24 27  0  0  0  0            999 V2000
   -2.2533    0.4504    0.0000 O   0  0
    1.0451    0.5534    0.0000 N   0  0
    0.2651   -0.9006    0.0000 N   0  0
    2.8281   -3.6798    0.0000 N   0  0
    1.4797   -0.1478    0.0000 C   0  0
    0.2205    0.5277    0.0000 C   0  0
    1.0897   -0.8748    0.0000 C   0  0
   -0.1695   -0.1993    0.0000 C   0  0
    1.5243   -1.5760    0.0000 C   0  0
    1.5777    1.1835    0.0000 C   0  0
    2.2809    0.0489    0.0000 C   0  0
   -0.2141    1.2289    0.0000 C   0  0
   -0.9941   -0.2251    0.0000 C   0  0
    2.3415    0.8716    0.0000 C   0  0
   -1.4287    0.4762    0.0000 C   0  0
   -1.0387    1.2032    0.0000 C   0  0
    2.3489   -1.5503    0.0000 C   0  0
    1.1343   -2.3030    0.0000 C   0  0
    2.3935   -2.9785    0.0000 C   0  0
    2.7835   -2.2515    0.0000 C   0  0
    1.5689   -3.0043    0.0000 C   0  0
   -2.6879    1.1516    0.0000 C   0  0
    3.6527   -3.6540    0.0000 C   0  0
    2.4382   -4.4068    0.0000 C   0  0
  1 15  1  0
  1 22  1  0
  2  5  1  0
  2  6  1  0
  2 10  1  0
  3  7  1  0
  3  8  1  0
  4 19  1  0
  4 23  1  0
  4 24  1  0
  5  7  1  0
  5 11  2  0
  6  8  1  0
  6 12  2  0
  7  9  1  0
  8 13  2  0
  9 17  2  0
  9 18  1  0
 10 14  2  0
 11 14  1  0
 12 16  1  0
 13 15  1  0
 15 16  2  0
 17 20  1  0
 18 21  2  0
 19 20  2  0
 19 21  1  0
M  END
> <From>
www.bindingDB.org

> <BindingDB Reactant_set_id>
50504718

> <Ligand InChI>
InChI=1S/C20H21N3O/c1-22(2)15-8-6-14(7-9-15)20-19-5-4-12-23(19)18-11-10-16(24-3)13-17(18)21-20/h4-13,20-21H,1-3H3

> <Ligand InChI Key>
KUFHEUJHSAJDFW-UHFFFAOYSA-N

> <BindingDB MonomerID>
50184397

> <BindingDB Ligand Name>
CHEMBL1547184

> <Target Name>
DNA repair protein RAD51 homolog 1

> <Target Source Organism According to Curator or DataSource>
Homo sapiens

> <Ki (nM)>


> <IC50 (nM)>
>100000

> <Kd (nM)>


> <EC50 (nM)>


> <kon (M-1-s-1)>


> <koff (s-1)>


> <pH>


> <Temp C>


> <Curation/DataSource>
ChEMBL

> <Article DOI>
10.1021/acs.jmedchem.5b01762

> <BindingDB Entry DOI>
10.7270/Q200041Q

> <PMID>
27049177

> <PubChem AID>


> <Patent Number>


> <Authors>
Lv, W; Budke, B; Pawlowski, M; Connell, PP; Kozikowski, AP

> <Date of publication>
5/26/2016

> <Date in BindingDB>
10/1/2017

> <Institution>
University of Illinois at Chicago

> <Link to Ligand in BindingDB>
http://www.bindingdb.org/bind/chemsearch/marvin/MolStructure.jsp?monomerid=50184397

> <Link to Ligand-Target Pair in BindingDB>
http://www.bindingdb.org/jsp/dbsearch/PrimarySearch_ki.jsp?energyterm=kJ/mole&tag=pol&polymerid=4676&target=DNA+repair+protein+RAD51+homolog+1&column=ki&startPg=0&Increment=50&submit=Search

> <Link to Ligand-Target Pair in BindingDB>
http://www.bindingdb.org/jsp/dbsearch/PrimarySearch_ki.jsp?energyterm=kJ/mole&tag=r21&monomerid=50184397&enzyme=DNA+repair+protein+RAD51+homolog+1&column=ki&startPg=0&Increment=50&submit=Search

> <Ligand HET ID in PDB>


> <PDB ID(s) for Ligand-Target Complex>


> <PubChem CID of Ligand>
2814482

> <PubChem SID of Ligand>
104068771

> <ChEBI ID of Ligand>


> <ChEMBL ID of Ligand>
CHEMBL1547184

> <DrugBank ID of Ligand>


> <IUPHAR_GRAC ID of Ligand>


> <KEGG ID of Ligand>


> <ZINC ID of Ligand>
ZINC28569498

> <Number of Protein Chains in Target (bigger than 1 implies a multichain complex)>
1

> <BindingDB Target Chain Sequence>
MAMQMQLEANADTSVEEESFGPQPISRLEQCGINANDVKKLEEAGFHTVEAVAYAPKKELINIKGISEAKADKILAEAAKLVPMGFTTATEFHQRRSEIIQITTGSKELDKLLQGGIETGSITEMFGEFRTGKTQICHTLAVTCQLPIDRGGGEGKAMYIDTEGTFRPERLLAVAERYGLSGSDVLDNVAYARAFNTDHQTQLLYQASAMMVESRYALLIVDSATALYRTDYSGRGELSARQMHLARFLRMLLRLADEFGVAVVITNQVVAQVDGAAMFAADPKKPIGGNIIAHASTTRLYLRKGRGETRICKIYDSPCLPEAEAMFAINADGVGDAKD

> <PDB ID(s) of Target Chain>
1N0W,5JZC,5NP7,5NWL,8BQ2,8BR2,8BSC

> <UniProt (SwissProt) Recommended Name of Target Chain>
DNA repair protein RAD51 homolog 1

> <UniProt (SwissProt) Entry Name of Target Chain>
RAD51_HUMAN

> <UniProt (SwissProt) Primary ID of Target Chain>
Q06609

> <UniProt (SwissProt) Secondary ID(s) of Target Chain>
B0FXP0 B2R8T6 Q6FHX9 Q6ZNA8 Q9BV60

> <UniProt (SwissProt) Alternative ID(s) of Target Chain>


> <UniProt (TrEMBL) Submitted Name of Target Chain>


> <UniProt (TrEMBL) Entry Name of Target Chain>


> <UniProt (TrEMBL) Primary ID of Target Chain>


> <UniProt (TrEMBL) Secondary ID(s) of Target Chain>


> <UniProt (TrEMBL) Alternative ID(s) of Target Chain>


$$$$

  SciTegic12211613292D

 22 25  0  0  0  0            999 V2000
    5.8267   -3.6371    0.0000 C   0  0
    4.5254   -4.3830    0.0000 C   0  0
    3.2287   -3.6290    0.0000 C   0  0
    3.2335   -2.1297    0.0000 C   0  0
    4.5347   -1.3830    0.0000 C   0  0
    5.8314   -2.1371    0.0000 C   0  0
    0.6426    0.8996    0.0000 N   0  0
    1.9460    0.1469    0.0000 C   0  0
    1.9460   -1.3585    0.0000 C   0  0
    0.6426   -2.0562    0.0000 N   0  0
   -0.6609   -1.3585    0.0000 C   0  0
   -1.9460   -2.0562    0.0000 C   0  0
   -3.2678   -1.3585    0.0000 C   0  0
   -3.2678    0.1469    0.0000 C   0  0
   -1.9460    0.8996    0.0000 C   0  0
   -0.6609    0.1469    0.0000 C   0  0
    3.0843    1.1566    0.0000 C   0  0
    2.4601    2.5335    0.0000 C   0  0
    0.9547    2.3683    0.0000 C   0  0
    7.1351   -1.3934    0.0000 N   0  3
    8.1716   -1.9982    0.0000 O   0  0
    7.1409   -0.1934    0.0000 O   0  5
  1  2  1  0
  2  3  2  0
  3  4  1  0
  4  5  2  0
  5  6  1  0
  1  6  2  0
  7  8  1  0
  8  9  1  0
  9 10  2  0
 10 11  1  0
 11 12  1  0
 12 13  2  0
 13 14  1  0
 14 15  2  0
 15 16  1  0
  7 16  1  0
 11 16  2  0
 17 18  1  0
 18 19  2  0
  7 19  1  0
  8 17  2  0
  4  9  1  0
 20 21  2  0
 20 22  1  0
  6 20  1  0
M  CHG  2  20   1  22  -1
M  END
> <From>
www.bindingDB.org

> <BindingDB Reactant_set_id>
50504719

> <Ligand InChI>
InChI=1S/C17H11N3O2/c21-20(22)13-6-3-5-12(11-13)17-16-9-4-10-19(16)15-8-2-1-7-14(15)18-17/h1-11H

> <Ligand InChI Key>
VONVAASQNGWAQZ-UHFFFAOYSA-N

> <BindingDB MonomerID>
50184406

> <BindingDB Ligand Name>
CHEMBL3823677

> <Target Name>
DNA repair protein RAD51 homolog 1

> <Target Source Organism According to Curator or DataSource>
Homo sapiens

> <Ki (nM)>


> <IC50 (nM)>
>100000

> <Kd (nM)>


> <EC50 (nM)>


> <kon (M-1-s-1)>


> <koff (s-1)>


> <pH>


> <Temp C>


> <Curation/DataSource>
ChEMBL

> <Article DOI>
10.1021/acs.jmedchem.5b01762

> <BindingDB Entry DOI>
10.7270/Q200041Q

> <PMID>
27049177

> <PubChem AID>


> <Patent Number>


> <Authors>
Lv, W; Budke, B; Pawlowski, M; Connell, PP; Kozikowski, AP

> <Date of publication>
5/26/2016

> <Date in BindingDB>
10/1/2017

> <Institution>
University of Illinois at Chicago

> <Link to Ligand in BindingDB>
http://www.bindingdb.org/bind/chemsearch/marvin/MolStructure.jsp?monomerid=50184406

> <Link to Ligand-Target Pair in BindingDB>
http://www.bindingdb.org/jsp/dbsearch/PrimarySearch_ki.jsp?energyterm=kJ/mole&tag=pol&polymerid=4676&target=DNA+repair+protein+RAD51+homolog+1&column=ki&startPg=0&Increment=50&submit=Search

> <Link to Ligand-Target Pair in BindingDB>
http://www.bindingdb.org/jsp/dbsearch/PrimarySearch_ki.jsp?energyterm=kJ/mole&tag=r21&monomerid=50184406&enzyme=DNA+repair+protein+RAD51+homolog+1&column=ki&startPg=0&Increment=50&submit=Search

> <Ligand HET ID in PDB>


> <PDB ID(s) for Ligand-Target Complex>


> <PubChem CID of Ligand>
127050093

> <PubChem SID of Ligand>
346550377

> <ChEBI ID of Ligand>


> <ChEMBL ID of Ligand>
CHEMBL3823677

> <DrugBank ID of Ligand>


> <IUPHAR_GRAC ID of Ligand>


> <KEGG ID of Ligand>


> <ZINC ID of Ligand>


> <Number of Protein Chains in Target (bigger than 1 implies a multichain complex)>
1

> <BindingDB Target Chain Sequence>
MAMQMQLEANADTSVEEESFGPQPISRLEQCGINANDVKKLEEAGFHTVEAVAYAPKKELINIKGISEAKADKILAEAAKLVPMGFTTATEFHQRRSEIIQITTGSKELDKLLQGGIETGSITEMFGEFRTGKTQICHTLAVTCQLPIDRGGGEGKAMYIDTEGTFRPERLLAVAERYGLSGSDVLDNVAYARAFNTDHQTQLLYQASAMMVESRYALLIVDSATALYRTDYSGRGELSARQMHLARFLRMLLRLADEFGVAVVITNQVVAQVDGAAMFAADPKKPIGGNIIAHASTTRLYLRKGRGETRICKIYDSPCLPEAEAMFAINADGVGDAKD

> <PDB ID(s) of Target Chain>
1N0W,5JZC,5NP7,5NWL,8BQ2,8BR2,8BSC

> <UniProt (SwissProt) Recommended Name of Target Chain>
DNA repair protein RAD51 homolog 1

> <UniProt (SwissProt) Entry Name of Target Chain>
RAD51_HUMAN

> <UniProt (SwissProt) Primary ID of Target Chain>
Q06609

> <UniProt (SwissProt) Secondary ID(s) of Target Chain>
B0FXP0 B2R8T6 Q6FHX9 Q6ZNA8 Q9BV60

> <UniProt (SwissProt) Alternative ID(s) of Target Chain>


> <UniProt (TrEMBL) Submitted Name of Target Chain>


> <UniProt (TrEMBL) Entry Name of Target Chain>


> <UniProt (TrEMBL) Primary ID of Target Chain>


> <UniProt (TrEMBL) Secondary ID(s) of Target Chain>


> <UniProt (TrEMBL) Alternative ID(s) of Target Chain>


$$$$

  SciTegic12211613292D

 20 23  0  0  0  0            999 V2000
    5.8267   -3.6371    0.0000 C   0  0
    4.5254   -4.3830    0.0000 C   0  0
    3.2287   -3.6290    0.0000 C   0  0
    3.2335   -2.1297    0.0000 C   0  0
    4.5347   -1.3830    0.0000 C   0  0
    5.8314   -2.1371    0.0000 C   0  0
    0.6426    0.8996    0.0000 N   0  0
    1.9460    0.1469    0.0000 C   0  0
    1.9460   -1.3585    0.0000 C   0  0
    0.6426   -2.0562    0.0000 N   0  0
   -0.6609   -1.3585    0.0000 C   0  0
   -1.9460   -2.0562    0.0000 C   0  0
   -3.2678   -1.3585    0.0000 C   0  0
   -3.2678    0.1469    0.0000 C   0  0
   -1.9460    0.8996    0.0000 C   0  0
   -0.6609    0.1469    0.0000 C   0  0
    3.0843    1.1566    0.0000 C   0  0
    2.4601    2.5335    0.0000 C   0  0
    0.9547    2.3683    0.0000 C   0  0
    6.8725   -1.5404    0.0000 N   0  0
  1  2  1  0
  2  3  2  0
  3  4  1  0
  4  5  2  0
  5  6  1  0
  1  6  2  0
  7  8  1  0
  8  9  1  0
  9 10  2  0
 10 11  1  0
 11 12  1  0
 12 13  2  0
 13 14  1  0
 14 15  2  0
 15 16  1  0
  7 16  1  0
 11 16  2  0
 17 18  1  0
 18 19  2  0
  7 19  1  0
  8 17  2  0
  4  9  1  0
  6 20  1  0
M  END
> <From>
www.bindingDB.org

> <BindingDB Reactant_set_id>
50504720

> <Ligand InChI>
InChI=1S/C17H13N3/c18-13-6-3-5-12(11-13)17-16-9-4-10-20(16)15-8-2-1-7-14(15)19-17/h1-11H,18H2

> <Ligand InChI Key>
WWIWNVKENUJKIC-UHFFFAOYSA-N

> <BindingDB MonomerID>
50184407

> <BindingDB Ligand Name>
CHEMBL3824220

> <Target Name>
DNA repair protein RAD51 homolog 1

> <Target Source Organism According to Curator or DataSource>
Homo sapiens

> <Ki (nM)>


> <IC50 (nM)>
>100000

> <Kd (nM)>


> <EC50 (nM)>


> <kon (M-1-s-1)>


> <koff (s-1)>


> <pH>


> <Temp C>


> <Curation/DataSource>
ChEMBL

> <Article DOI>
10.1021/acs.jmedchem.5b01762

> <BindingDB Entry DOI>
10.7270/Q200041Q

> <PMID>
27049177

> <PubChem AID>


> <Patent Number>


> <Authors>
Lv, W; Budke, B; Pawlowski, M; Connell, PP; Kozikowski, AP

> <Date of publication>
5/26/2016

> <Date in BindingDB>
10/1/2017

> <Institution>
University of Illinois at Chicago

> <Link to Ligand in BindingDB>
http://www.bindingdb.org/bind/chemsearch/marvin/MolStructure.jsp?monomerid=50184407

> <Link to Ligand-Target Pair in BindingDB>
http://www.bindingdb.org/jsp/dbsearch/PrimarySearch_ki.jsp?energyterm=kJ/mole&tag=pol&polymerid=4676&target=DNA+repair+protein+RAD51+homolog+1&column=ki&startPg=0&Increment=50&submit=Search

> <Link to Ligand-Target Pair in BindingDB>
http://www.bindingdb.org/jsp/dbsearch/PrimarySearch_ki.jsp?energyterm=kJ/mole&tag=r21&monomerid=50184407&enzyme=DNA+repair+protein+RAD51+homolog+1&column=ki&startPg=0&Increment=50&submit=Search

> <Ligand HET ID in PDB>


> <PDB ID(s) for Ligand-Target Complex>


> <PubChem CID of Ligand>
127052564

> <PubChem SID of Ligand>
346550378

> <ChEBI ID of Ligand>


> <ChEMBL ID of Ligand>
CHEMBL3824220

> <DrugBank ID of Ligand>


> <IUPHAR_GRAC ID of Ligand>


> <KEGG ID of Ligand>


> <ZINC ID of Ligand>


> <Number of Protein Chains in Target (bigger than 1 implies a multichain complex)>
1

> <BindingDB Target Chain Sequence>
MAMQMQLEANADTSVEEESFGPQPISRLEQCGINANDVKKLEEAGFHTVEAVAYAPKKELINIKGISEAKADKILAEAAKLVPMGFTTATEFHQRRSEIIQITTGSKELDKLLQGGIETGSITEMFGEFRTGKTQICHTLAVTCQLPIDRGGGEGKAMYIDTEGTFRPERLLAVAERYGLSGSDVLDNVAYARAFNTDHQTQLLYQASAMMVESRYALLIVDSATALYRTDYSGRGELSARQMHLARFLRMLLRLADEFGVAVVITNQVVAQVDGAAMFAADPKKPIGGNIIAHASTTRLYLRKGRGETRICKIYDSPCLPEAEAMFAINADGVGDAKD

> <PDB ID(s) of Target Chain>
1N0W,5JZC,5NP7,5NWL,8BQ2,8BR2,8BSC

> <UniProt (SwissProt) Recommended Name of Target Chain>
DNA repair protein RAD51 homolog 1

> <UniProt (SwissProt) Entry Name of Target Chain>
RAD51_HUMAN

> <UniProt (SwissProt) Primary ID of Target Chain>
Q06609

> <UniProt (SwissProt) Secondary ID(s) of Target Chain>
B0FXP0 B2R8T6 Q6FHX9 Q6ZNA8 Q9BV60

> <UniProt (SwissProt) Alternative ID(s) of Target Chain>


> <UniProt (TrEMBL) Submitted Name of Target Chain>


> <UniProt (TrEMBL) Entry Name of Target Chain>


> <UniProt (TrEMBL) Primary ID of Target Chain>


> <UniProt (TrEMBL) Secondary ID(s) of Target Chain>


> <UniProt (TrEMBL) Alternative ID(s) of Target Chain>


$$$$

  SciTegic12211613292D

 20 23  0  0  0  0            999 V2000
    5.8267   -3.6371    0.0000 C   0  0
    4.5254   -4.3830    0.0000 C   0  0
    3.2287   -3.6290    0.0000 C   0  0
    3.2335   -2.1297    0.0000 C   0  0
    4.5347   -1.3830    0.0000 C   0  0
    5.8314   -2.1371    0.0000 C   0  0
    0.6426    0.8996    0.0000 N   0  0
    1.9460    0.1469    0.0000 C   0  0
    1.9460   -1.3585    0.0000 C   0  0
    0.6426   -2.0562    0.0000 N   0  0
   -0.6609   -1.3585    0.0000 C   0  0
   -1.9460   -2.0562    0.0000 C   0  0
   -3.2678   -1.3585    0.0000 C   0  0
   -3.2678    0.1469    0.0000 C   0  0
   -1.9460    0.8996    0.0000 C   0  0
   -0.6609    0.1469    0.0000 C   0  0
    3.0843    1.1566    0.0000 C   0  0
    2.4601    2.5335    0.0000 C   0  0
    0.9547    2.3683    0.0000 C   0  0
    6.8641   -4.2403    0.0000 O   0  0
  1  2  1  0
  2  3  2  0
  3  4  1  0
  4  5  2  0
  5  6  1  0
  1  6  2  0
  7  8  1  0
  8  9  1  0
  9 10  2  0
 10 11  1  0
 11 12  1  0
 12 13  2  0
 13 14  1  0
 14 15  2  0
 15 16  1  0
  7 16  1  0
 11 16  2  0
 17 18  1  0
 18 19  2  0
  7 19  1  0
  8 17  2  0
  4  9  1  0
  1 20  1  0
M  END
> <From>
www.bindingDB.org

> <BindingDB Reactant_set_id>
50504721

> <Ligand InChI>
InChI=1S/C17H12N2O/c20-13-9-7-12(8-10-13)17-16-6-3-11-19(16)15-5-2-1-4-14(15)18-17/h1-11,20H

> <Ligand InChI Key>
VAAZADVYJAGCEK-UHFFFAOYSA-N

> <BindingDB MonomerID>
50184316

> <BindingDB Ligand Name>
CHEMBL3823737

> <Target Name>
DNA repair protein RAD51 homolog 1

> <Target Source Organism According to Curator or DataSource>
Homo sapiens

> <Ki (nM)>


> <IC50 (nM)>
>100000

> <Kd (nM)>


> <EC50 (nM)>


> <kon (M-1-s-1)>


> <koff (s-1)>


> <pH>


> <Temp C>


> <Curation/DataSource>
ChEMBL

> <Article DOI>
10.1021/acs.jmedchem.5b01762

> <BindingDB Entry DOI>
10.7270/Q200041Q

> <PMID>
27049177

> <PubChem AID>


> <Patent Number>


> <Authors>
Lv, W; Budke, B; Pawlowski, M; Connell, PP; Kozikowski, AP

> <Date of publication>
5/26/2016

> <Date in BindingDB>
10/1/2017

> <Institution>
University of Illinois at Chicago

> <Link to Ligand in BindingDB>
http://www.bindingdb.org/bind/chemsearch/marvin/MolStructure.jsp?monomerid=50184316

> <Link to Ligand-Target Pair in BindingDB>
http://www.bindingdb.org/jsp/dbsearch/PrimarySearch_ki.jsp?energyterm=kJ/mole&tag=pol&polymerid=4676&target=DNA+repair+protein+RAD51+homolog+1&column=ki&startPg=0&Increment=50&submit=Search

> <Link to Ligand-Target Pair in BindingDB>
http://www.bindingdb.org/jsp/dbsearch/PrimarySearch_ki.jsp?energyterm=kJ/mole&tag=r21&monomerid=50184316&enzyme=DNA+repair+protein+RAD51+homolog+1&column=ki&startPg=0&Increment=50&submit=Search

> <Ligand HET ID in PDB>


> <PDB ID(s) for Ligand-Target Complex>


> <PubChem CID of Ligand>
127052933

> <PubChem SID of Ligand>
104068710

> <ChEBI ID of Ligand>


> <ChEMBL ID of Ligand>
CHEMBL3823737

> <DrugBank ID of Ligand>


> <IUPHAR_GRAC ID of Ligand>


> <KEGG ID of Ligand>


> <ZINC ID of Ligand>
ZINC00006856

> <Number of Protein Chains in Target (bigger than 1 implies a multichain complex)>
1

> <BindingDB Target Chain Sequence>
MAMQMQLEANADTSVEEESFGPQPISRLEQCGINANDVKKLEEAGFHTVEAVAYAPKKELINIKGISEAKADKILAEAAKLVPMGFTTATEFHQRRSEIIQITTGSKELDKLLQGGIETGSITEMFGEFRTGKTQICHTLAVTCQLPIDRGGGEGKAMYIDTEGTFRPERLLAVAERYGLSGSDVLDNVAYARAFNTDHQTQLLYQASAMMVESRYALLIVDSATALYRTDYSGRGELSARQMHLARFLRMLLRLADEFGVAVVITNQVVAQVDGAAMFAADPKKPIGGNIIAHASTTRLYLRKGRGETRICKIYDSPCLPEAEAMFAINADGVGDAKD

> <PDB ID(s) of Target Chain>
1N0W,5JZC,5NP7,5NWL,8BQ2,8BR2,8BSC

> <UniProt (SwissProt) Recommended Name of Target Chain>
DNA repair protein RAD51 homolog 1

> <UniProt (SwissProt) Entry Name of Target Chain>
RAD51_HUMAN

> <UniProt (SwissProt) Primary ID of Target Chain>
Q06609

> <UniProt (SwissProt) Secondary ID(s) of Target Chain>
B0FXP0 B2R8T6 Q6FHX9 Q6ZNA8 Q9BV60

> <UniProt (SwissProt) Alternative ID(s) of Target Chain>


> <UniProt (TrEMBL) Submitted Name of Target Chain>


> <UniProt (TrEMBL) Entry Name of Target Chain>


> <UniProt (TrEMBL) Primary ID of Target Chain>


> <UniProt (TrEMBL) Secondary ID(s) of Target Chain>


> <UniProt (TrEMBL) Alternative ID(s) of Target Chain>


$$$$

  SciTegic12211613292D

 22 25  0  0  0  0            999 V2000
    5.8267   -3.6371    0.0000 C   0  0
    4.5254   -4.3830    0.0000 C   0  0
    3.2287   -3.6290    0.0000 C   0  0
    3.2335   -2.1297    0.0000 C   0  0
    4.5347   -1.3830    0.0000 C   0  0
    5.8314   -2.1371    0.0000 C   0  0
    0.6426    0.8996    0.0000 N   0  0
    1.9460    0.1469    0.0000 C   0  0
    1.9460   -1.3585    0.0000 C   0  0
    0.6426   -2.0562    0.0000 N   0  0
   -0.6609   -1.3585    0.0000 C   0  0
   -1.9460   -2.0562    0.0000 C   0  0
   -3.2678   -1.3585    0.0000 C   0  0
   -3.2678    0.1469    0.0000 C   0  0
   -1.9460    0.8996    0.0000 C   0  0
   -0.6609    0.1469    0.0000 C   0  0
    3.0843    1.1566    0.0000 C   0  0
    2.4601    2.5335    0.0000 C   0  0
    0.9547    2.3683    0.0000 C   0  0
    7.1257   -4.3889    0.0000 N   0  3
    8.1660   -3.7907    0.0000 O   0  0
    7.1240   -5.5889    0.0000 O   0  5
  1  2  1  0
  2  3  2  0
  3  4  1  0
  4  5  2  0
  5  6  1  0
  1  6  2  0
  7  8  1  0
  8  9  1  0
  9 10  2  0
 10 11  1  0
 11 12  1  0
 12 13  2  0
 13 14  1  0
 14 15  2  0
 15 16  1  0
  7 16  1  0
 11 16  2  0
 17 18  1  0
 18 19  2  0
  7 19  1  0
  8 17  2  0
  4  9  1  0
 20 21  2  0
 20 22  1  0
  1 20  1  0
M  CHG  2  20   1  22  -1
M  END
> <From>
www.bindingDB.org

> <BindingDB Reactant_set_id>
50504722

> <Ligand InChI>
InChI=1S/C17H11N3O2/c21-20(22)13-9-7-12(8-10-13)17-16-6-3-11-19(16)15-5-2-1-4-14(15)18-17/h1-11H

> <Ligand InChI Key>
KUBYZAUOQKANFA-UHFFFAOYSA-N

> <BindingDB MonomerID>
50184318

> <BindingDB Ligand Name>
CHEMBL3823934

> <Target Name>
DNA repair protein RAD51 homolog 1

> <Target Source Organism According to Curator or DataSource>
Homo sapiens

> <Ki (nM)>


> <IC50 (nM)>
>100000

> <Kd (nM)>


> <EC50 (nM)>


> <kon (M-1-s-1)>


> <koff (s-1)>


> <pH>


> <Temp C>


> <Curation/DataSource>
ChEMBL

> <Article DOI>
10.1021/acs.jmedchem.5b01762

> <BindingDB Entry DOI>
10.7270/Q200041Q

> <PMID>
27049177

> <PubChem AID>


> <Patent Number>


> <Authors>
Lv, W; Budke, B; Pawlowski, M; Connell, PP; Kozikowski, AP

> <Date of publication>
5/26/2016

> <Date in BindingDB>
10/1/2017

> <Institution>
University of Illinois at Chicago

> <Link to Ligand in BindingDB>
http://www.bindingdb.org/bind/chemsearch/marvin/MolStructure.jsp?monomerid=50184318

> <Link to Ligand-Target Pair in BindingDB>
http://www.bindingdb.org/jsp/dbsearch/PrimarySearch_ki.jsp?energyterm=kJ/mole&tag=pol&polymerid=4676&target=DNA+repair+protein+RAD51+homolog+1&column=ki&startPg=0&Increment=50&submit=Search

> <Link to Ligand-Target Pair in BindingDB>
http://www.bindingdb.org/jsp/dbsearch/PrimarySearch_ki.jsp?energyterm=kJ/mole&tag=r21&monomerid=50184318&enzyme=DNA+repair+protein+RAD51+homolog+1&column=ki&startPg=0&Increment=50&submit=Search

> <Ligand HET ID in PDB>


> <PDB ID(s) for Ligand-Target Complex>


> <PubChem CID of Ligand>
127050490

> <PubChem SID of Ligand>
104068712

> <ChEBI ID of Ligand>


> <ChEMBL ID of Ligand>
CHEMBL3823934

> <DrugBank ID of Ligand>


> <IUPHAR_GRAC ID of Ligand>


> <KEGG ID of Ligand>


> <ZINC ID of Ligand>
ZINC13683758

> <Number of Protein Chains in Target (bigger than 1 implies a multichain complex)>
1

> <BindingDB Target Chain Sequence>
MAMQMQLEANADTSVEEESFGPQPISRLEQCGINANDVKKLEEAGFHTVEAVAYAPKKELINIKGISEAKADKILAEAAKLVPMGFTTATEFHQRRSEIIQITTGSKELDKLLQGGIETGSITEMFGEFRTGKTQICHTLAVTCQLPIDRGGGEGKAMYIDTEGTFRPERLLAVAERYGLSGSDVLDNVAYARAFNTDHQTQLLYQASAMMVESRYALLIVDSATALYRTDYSGRGELSARQMHLARFLRMLLRLADEFGVAVVITNQVVAQVDGAAMFAADPKKPIGGNIIAHASTTRLYLRKGRGETRICKIYDSPCLPEAEAMFAINADGVGDAKD

> <PDB ID(s) of Target Chain>
1N0W,5JZC,5NP7,5NWL,8BQ2,8BR2,8BSC

> <UniProt (SwissProt) Recommended Name of Target Chain>
DNA repair protein RAD51 homolog 1

> <UniProt (SwissProt) Entry Name of Target Chain>
RAD51_HUMAN

> <UniProt (SwissProt) Primary ID of Target Chain>
Q06609

> <UniProt (SwissProt) Secondary ID(s) of Target Chain>
B0FXP0 B2R8T6 Q6FHX9 Q6ZNA8 Q9BV60

> <UniProt (SwissProt) Alternative ID(s) of Target Chain>


> <UniProt (TrEMBL) Submitted Name of Target Chain>


> <UniProt (TrEMBL) Entry Name of Target Chain>


> <UniProt (TrEMBL) Primary ID of Target Chain>


> <UniProt (TrEMBL) Secondary ID(s) of Target Chain>


> <UniProt (TrEMBL) Alternative ID(s) of Target Chain>


$$$$

  SciTegic12211613292D

 20 23  0  0  0  0            999 V2000
    5.8267   -3.6371    0.0000 C   0  0
    4.5254   -4.3830    0.0000 C   0  0
    3.2287   -3.6290    0.0000 C   0  0
    3.2335   -2.1297    0.0000 C   0  0
    4.5347   -1.3830    0.0000 C   0  0
    5.8314   -2.1371    0.0000 C   0  0
    0.6426    0.8996    0.0000 N   0  0
    1.9460    0.1469    0.0000 C   0  0
    1.9460   -1.3585    0.0000 C   0  0
    0.6426   -2.0562    0.0000 N   0  0
   -0.6609   -1.3585    0.0000 C   0  0
   -1.9460   -2.0562    0.0000 C   0  0
   -3.2678   -1.3585    0.0000 C   0  0
   -3.2678    0.1469    0.0000 C   0  0
   -1.9460    0.8996    0.0000 C   0  0
   -0.6609    0.1469    0.0000 C   0  0
    3.0843    1.1566    0.0000 C   0  0
    2.4601    2.5335    0.0000 C   0  0
    0.9547    2.3683    0.0000 C   0  0
    6.8641   -4.2403    0.0000 N   0  0
  1  2  1  0
  2  3  2  0
  3  4  1  0
  4  5  2  0
  5  6  1  0
  1  6  2  0
  7  8  1  0
  8  9  1  0
  9 10  2  0
 10 11  1  0
 11 12  1  0
 12 13  2  0
 13 14  1  0
 14 15  2  0
 15 16  1  0
  7 16  1  0
 11 16  2  0
 17 18  1  0
 18 19  2  0
  7 19  1  0
  8 17  2  0
  4  9  1  0
  1 20  1  0
M  END
> <From>
www.bindingDB.org

> <BindingDB Reactant_set_id>
50504723

> <Ligand InChI>
InChI=1S/C17H13N3/c18-13-9-7-12(8-10-13)17-16-6-3-11-20(16)15-5-2-1-4-14(15)19-17/h1-11H,18H2

> <Ligand InChI Key>
DUTKRZVXBMKLQN-UHFFFAOYSA-N

> <BindingDB MonomerID>
50184319

> <BindingDB Ligand Name>
CHEMBL3824080

> <Target Name>
DNA repair protein RAD51 homolog 1

> <Target Source Organism According to Curator or DataSource>
Homo sapiens

> <Ki (nM)>


> <IC50 (nM)>
>100000

> <Kd (nM)>


> <EC50 (nM)>


> <kon (M-1-s-1)>


> <koff (s-1)>


> <pH>


> <Temp C>


> <Curation/DataSource>
ChEMBL

> <Article DOI>
10.1021/acs.jmedchem.5b01762

> <BindingDB Entry DOI>
10.7270/Q200041Q

> <PMID>
27049177

> <PubChem AID>


> <Patent Number>


> <Authors>
Lv, W; Budke, B; Pawlowski, M; Connell, PP; Kozikowski, AP

> <Date of publication>
5/26/2016

> <Date in BindingDB>
10/1/2017

> <Institution>
University of Illinois at Chicago

> <Link to Ligand in BindingDB>
http://www.bindingdb.org/bind/chemsearch/marvin/MolStructure.jsp?monomerid=50184319

> <Link to Ligand-Target Pair in BindingDB>
http://www.bindingdb.org/jsp/dbsearch/PrimarySearch_ki.jsp?energyterm=kJ/mole&tag=pol&polymerid=4676&target=DNA+repair+protein+RAD51+homolog+1&column=ki&startPg=0&Increment=50&submit=Search

> <Link to Ligand-Target Pair in BindingDB>
http://www.bindingdb.org/jsp/dbsearch/PrimarySearch_ki.jsp?energyterm=kJ/mole&tag=r21&monomerid=50184319&enzyme=DNA+repair+protein+RAD51+homolog+1&column=ki&startPg=0&Increment=50&submit=Search

> <Ligand HET ID in PDB>


> <PDB ID(s) for Ligand-Target Complex>


> <PubChem CID of Ligand>
127052566

> <PubChem SID of Ligand>
104068713

> <ChEBI ID of Ligand>


> <ChEMBL ID of Ligand>
CHEMBL3824080

> <DrugBank ID of Ligand>


> <IUPHAR_GRAC ID of Ligand>


> <KEGG ID of Ligand>


> <ZINC ID of Ligand>
ZINC28572085

> <Number of Protein Chains in Target (bigger than 1 implies a multichain complex)>
1

> <BindingDB Target Chain Sequence>
MAMQMQLEANADTSVEEESFGPQPISRLEQCGINANDVKKLEEAGFHTVEAVAYAPKKELINIKGISEAKADKILAEAAKLVPMGFTTATEFHQRRSEIIQITTGSKELDKLLQGGIETGSITEMFGEFRTGKTQICHTLAVTCQLPIDRGGGEGKAMYIDTEGTFRPERLLAVAERYGLSGSDVLDNVAYARAFNTDHQTQLLYQASAMMVESRYALLIVDSATALYRTDYSGRGELSARQMHLARFLRMLLRLADEFGVAVVITNQVVAQVDGAAMFAADPKKPIGGNIIAHASTTRLYLRKGRGETRICKIYDSPCLPEAEAMFAINADGVGDAKD

> <PDB ID(s) of Target Chain>
1N0W,5JZC,5NP7,5NWL,8BQ2,8BR2,8BSC

> <UniProt (SwissProt) Recommended Name of Target Chain>
DNA repair protein RAD51 homolog 1

> <UniProt (SwissProt) Entry Name of Target Chain>
RAD51_HUMAN

> <UniProt (SwissProt) Primary ID of Target Chain>
Q06609

> <UniProt (SwissProt) Secondary ID(s) of Target Chain>
B0FXP0 B2R8T6 Q6FHX9 Q6ZNA8 Q9BV60

> <UniProt (SwissProt) Alternative ID(s) of Target Chain>


> <UniProt (TrEMBL) Submitted Name of Target Chain>


> <UniProt (TrEMBL) Entry Name of Target Chain>


> <UniProt (TrEMBL) Primary ID of Target Chain>


> <UniProt (TrEMBL) Secondary ID(s) of Target Chain>


> <UniProt (TrEMBL) Alternative ID(s) of Target Chain>


$$$$

  SciTegic12211613292D

 22 25  0  0  0  0            999 V2000
    5.8267   -3.6371    0.0000 C   0  0
    4.5254   -4.3830    0.0000 C   0  0
    3.2287   -3.6290    0.0000 C   0  0
    3.2335   -2.1297    0.0000 C   0  0
    4.5347   -1.3830    0.0000 C   0  0
    5.8314   -2.1371    0.0000 C   0  0
    0.6426    0.8996    0.0000 N   0  0
    1.9460    0.1469    0.0000 C   0  0
    1.9460   -1.3585    0.0000 C   0  0
    0.6426   -2.0562    0.0000 N   0  0
   -0.6609   -1.3585    0.0000 C   0  0
   -1.9460   -2.0562    0.0000 C   0  0
   -3.2678   -1.3585    0.0000 C   0  0
   -3.2678    0.1469    0.0000 C   0  0
   -1.9460    0.8996    0.0000 C   0  0
   -0.6609    0.1469    0.0000 C   0  0
    3.0843    1.1566    0.0000 C   0  0
    2.4601    2.5335    0.0000 C   0  0
    0.9547    2.3683    0.0000 C   0  0
    7.1257   -4.3889    0.0000 N   0  0
    8.4267   -3.6407    0.0000 C   0  0
    9.4653   -4.2418    0.0000 C   0  0
  1  2  1  0
  2  3  2  0
  3  4  1  0
  4  5  2  0
  5  6  1  0
  1  6  2  0
  7  8  1  0
  8  9  1  0
  9 10  2  0
 10 11  1  0
 11 12  1  0
 12 13  2  0
 13 14  1  0
 14 15  2  0
 15 16  1  0
  7 16  1  0
 11 16  2  0
 17 18  1  0
 18 19  2  0
  7 19  1  0
  8 17  2  0
  4  9  1  0
  1 20  1  0
 20 21  1  0
 21 22  1  0
M  END
> <From>
www.bindingDB.org

> <BindingDB Reactant_set_id>
50504724

> <Ligand InChI>
InChI=1S/C19H17N3/c1-2-20-15-11-9-14(10-12-15)19-18-8-5-13-22(18)17-7-4-3-6-16(17)21-19/h3-13,20H,2H2,1H3

> <Ligand InChI Key>
OEUMSXQHYXCNBG-UHFFFAOYSA-N

> <BindingDB MonomerID>
50184320

> <BindingDB Ligand Name>
CHEMBL3823105

> <Target Name>
DNA repair protein RAD51 homolog 1

> <Target Source Organism According to Curator or DataSource>
Homo sapiens

> <Ki (nM)>


> <IC50 (nM)>
>100000

> <Kd (nM)>


> <EC50 (nM)>


> <kon (M-1-s-1)>


> <koff (s-1)>


> <pH>


> <Temp C>


> <Curation/DataSource>
ChEMBL

> <Article DOI>
10.1021/acs.jmedchem.5b01762

> <BindingDB Entry DOI>
10.7270/Q200041Q

> <PMID>
27049177

> <PubChem AID>


> <Patent Number>


> <Authors>
Lv, W; Budke, B; Pawlowski, M; Connell, PP; Kozikowski, AP

> <Date of publication>
5/26/2016

> <Date in BindingDB>
10/1/2017

> <Institution>
University of Illinois at Chicago

> <Link to Ligand in BindingDB>
http://www.bindingdb.org/bind/chemsearch/marvin/MolStructure.jsp?monomerid=50184320

> <Link to Ligand-Target Pair in BindingDB>
http://www.bindingdb.org/jsp/dbsearch/PrimarySearch_ki.jsp?energyterm=kJ/mole&tag=pol&polymerid=4676&target=DNA+repair+protein+RAD51+homolog+1&column=ki&startPg=0&Increment=50&submit=Search

> <Link to Ligand-Target Pair in BindingDB>
http://www.bindingdb.org/jsp/dbsearch/PrimarySearch_ki.jsp?energyterm=kJ/mole&tag=r21&monomerid=50184320&enzyme=DNA+repair+protein+RAD51+homolog+1&column=ki&startPg=0&Increment=50&submit=Search

> <Ligand HET ID in PDB>


> <PDB ID(s) for Ligand-Target Complex>


> <PubChem CID of Ligand>
127052567

> <PubChem SID of Ligand>
104068714

> <ChEBI ID of Ligand>


> <ChEMBL ID of Ligand>
CHEMBL3823105

> <DrugBank ID of Ligand>


> <IUPHAR_GRAC ID of Ligand>


> <KEGG ID of Ligand>


> <ZINC ID of Ligand>
ZINC13683772

> <Number of Protein Chains in Target (bigger than 1 implies a multichain complex)>
1

> <BindingDB Target Chain Sequence>
MAMQMQLEANADTSVEEESFGPQPISRLEQCGINANDVKKLEEAGFHTVEAVAYAPKKELINIKGISEAKADKILAEAAKLVPMGFTTATEFHQRRSEIIQITTGSKELDKLLQGGIETGSITEMFGEFRTGKTQICHTLAVTCQLPIDRGGGEGKAMYIDTEGTFRPERLLAVAERYGLSGSDVLDNVAYARAFNTDHQTQLLYQASAMMVESRYALLIVDSATALYRTDYSGRGELSARQMHLARFLRMLLRLADEFGVAVVITNQVVAQVDGAAMFAADPKKPIGGNIIAHASTTRLYLRKGRGETRICKIYDSPCLPEAEAMFAINADGVGDAKD

> <PDB ID(s) of Target Chain>
1N0W,5JZC,5NP7,5NWL,8BQ2,8BR2,8BSC

> <UniProt (SwissProt) Recommended Name of Target Chain>
DNA repair protein RAD51 homolog 1

> <UniProt (SwissProt) Entry Name of Target Chain>
RAD51_HUMAN

> <UniProt (SwissProt) Primary ID of Target Chain>
Q06609

> <UniProt (SwissProt) Secondary ID(s) of Target Chain>
B0FXP0 B2R8T6 Q6FHX9 Q6ZNA8 Q9BV60

> <UniProt (SwissProt) Alternative ID(s) of Target Chain>


> <UniProt (TrEMBL) Submitted Name of Target Chain>


> <UniProt (TrEMBL) Entry Name of Target Chain>


> <UniProt (TrEMBL) Primary ID of Target Chain>


> <UniProt (TrEMBL) Secondary ID(s) of Target Chain>


> <UniProt (TrEMBL) Alternative ID(s) of Target Chain>


$$$$

  SciTegic12211613292D

 25 29  0  0  0  0            999 V2000
    5.8267   -3.6371    0.0000 C   0  0
    4.5254   -4.3830    0.0000 C   0  0
    3.2287   -3.6290    0.0000 C   0  0
    3.2335   -2.1297    0.0000 C   0  0
    4.5347   -1.3830    0.0000 C   0  0
    5.8314   -2.1371    0.0000 C   0  0
    0.6426    0.8996    0.0000 N   0  0
    1.9460    0.1469    0.0000 C   0  0
    1.9460   -1.3585    0.0000 C   0  0
    0.6426   -2.0562    0.0000 N   0  0
   -0.6609   -1.3585    0.0000 C   0  0
   -1.9460   -2.0562    0.0000 C   0  0
   -3.2678   -1.3585    0.0000 C   0  0
   -3.2678    0.1469    0.0000 C   0  0
   -1.9460    0.8996    0.0000 C   0  0
   -0.6609    0.1469    0.0000 C   0  0
    3.0843    1.1566    0.0000 C   0  0
    2.4601    2.5335    0.0000 C   0  0
    0.9547    2.3683    0.0000 C   0  0
    7.1241   -4.3915    0.0000 N   0  0
    7.1219   -5.8916    0.0000 C   0  0
    8.4198   -6.6436    0.0000 C   0  0
    9.7200   -5.8956    0.0000 O   0  0
    9.7223   -4.3956    0.0000 C   0  0
    8.4244   -3.6436    0.0000 C   0  0
  1  2  1  0
  2  3  2  0
  3  4  1  0
  4  5  2  0
  5  6  1  0
  1  6  2  0
  7  8  1  0
  8  9  1  0
  9 10  2  0
 10 11  1  0
 11 12  1  0
 12 13  2  0
 13 14  1  0
 14 15  2  0
 15 16  1  0
  7 16  1  0
 11 16  2  0
 17 18  1  0
 18 19  2  0
  7 19  1  0
  8 17  2  0
  4  9  1  0
  1 20  1  0
 20 21  1  0
 20 25  1  0
 21 22  1  0
 22 23  1  0
 23 24  1  0
 24 25  1  0
M  END
> <From>
www.bindingDB.org

> <BindingDB Reactant_set_id>
50504725

> <Ligand InChI>
InChI=1S/C21H19N3O/c1-2-5-19-18(4-1)22-21(20-6-3-11-24(19)20)16-7-9-17(10-8-16)23-12-14-25-15-13-23/h1-11H,12-15H2

> <Ligand InChI Key>
BWGHMWGOMCFBCW-UHFFFAOYSA-N

> <BindingDB MonomerID>
50184322

> <BindingDB Ligand Name>
CHEMBL3822575

> <Target Name>
DNA repair protein RAD51 homolog 1

> <Target Source Organism According to Curator or DataSource>
Homo sapiens

> <Ki (nM)>


> <IC50 (nM)>
>100000

> <Kd (nM)>


> <EC50 (nM)>


> <kon (M-1-s-1)>


> <koff (s-1)>


> <pH>


> <Temp C>


> <Curation/DataSource>
ChEMBL

> <Article DOI>
10.1021/acs.jmedchem.5b01762

> <BindingDB Entry DOI>
10.7270/Q200041Q

> <PMID>
27049177

> <PubChem AID>


> <Patent Number>


> <Authors>
Lv, W; Budke, B; Pawlowski, M; Connell, PP; Kozikowski, AP

> <Date of publication>
5/26/2016

> <Date in BindingDB>
10/1/2017

> <Institution>
University of Illinois at Chicago

> <Link to Ligand in BindingDB>
http://www.bindingdb.org/bind/chemsearch/marvin/MolStructure.jsp?monomerid=50184322

> <Link to Ligand-Target Pair in BindingDB>
http://www.bindingdb.org/jsp/dbsearch/PrimarySearch_ki.jsp?energyterm=kJ/mole&tag=pol&polymerid=4676&target=DNA+repair+protein+RAD51+homolog+1&column=ki&startPg=0&Increment=50&submit=Search

> <Link to Ligand-Target Pair in BindingDB>
http://www.bindingdb.org/jsp/dbsearch/PrimarySearch_ki.jsp?energyterm=kJ/mole&tag=r21&monomerid=50184322&enzyme=DNA+repair+protein+RAD51+homolog+1&column=ki&startPg=0&Increment=50&submit=Search

> <Ligand HET ID in PDB>


> <PDB ID(s) for Ligand-Target Complex>


> <PubChem CID of Ligand>
127052027

> <PubChem SID of Ligand>
104068716

> <ChEBI ID of Ligand>


> <ChEMBL ID of Ligand>
CHEMBL3822575

> <DrugBank ID of Ligand>


> <IUPHAR_GRAC ID of Ligand>


> <KEGG ID of Ligand>


> <ZINC ID of Ligand>
ZINC13683802

> <Number of Protein Chains in Target (bigger than 1 implies a multichain complex)>
1

> <BindingDB Target Chain Sequence>
MAMQMQLEANADTSVEEESFGPQPISRLEQCGINANDVKKLEEAGFHTVEAVAYAPKKELINIKGISEAKADKILAEAAKLVPMGFTTATEFHQRRSEIIQITTGSKELDKLLQGGIETGSITEMFGEFRTGKTQICHTLAVTCQLPIDRGGGEGKAMYIDTEGTFRPERLLAVAERYGLSGSDVLDNVAYARAFNTDHQTQLLYQASAMMVESRYALLIVDSATALYRTDYSGRGELSARQMHLARFLRMLLRLADEFGVAVVITNQVVAQVDGAAMFAADPKKPIGGNIIAHASTTRLYLRKGRGETRICKIYDSPCLPEAEAMFAINADGVGDAKD

> <PDB ID(s) of Target Chain>
1N0W,5JZC,5NP7,5NWL,8BQ2,8BR2,8BSC

> <UniProt (SwissProt) Recommended Name of Target Chain>
DNA repair protein RAD51 homolog 1

> <UniProt (SwissProt) Entry Name of Target Chain>
RAD51_HUMAN

> <UniProt (SwissProt) Primary ID of Target Chain>
Q06609

> <UniProt (SwissProt) Secondary ID(s) of Target Chain>
B0FXP0 B2R8T6 Q6FHX9 Q6ZNA8 Q9BV60

> <UniProt (SwissProt) Alternative ID(s) of Target Chain>


> <UniProt (TrEMBL) Submitted Name of Target Chain>


> <UniProt (TrEMBL) Entry Name of Target Chain>


> <UniProt (TrEMBL) Primary ID of Target Chain>


> <UniProt (TrEMBL) Secondary ID(s) of Target Chain>


> <UniProt (TrEMBL) Alternative ID(s) of Target Chain>


$$$$

  SciTegic12211613302D

 19 22  0  0  0  0            999 V2000
    5.8267   -3.6371    0.0000 C   0  0
    4.5254   -4.3830    0.0000 N   0  0
    3.2287   -3.6290    0.0000 C   0  0
    3.2335   -2.1297    0.0000 C   0  0
    4.5347   -1.3830    0.0000 C   0  0
    5.8314   -2.1371    0.0000 C   0  0
    0.6426    0.8996    0.0000 N   0  0
    1.9460    0.1469    0.0000 C   0  0
    1.9460   -1.3585    0.0000 C   0  0
    0.6426   -2.0562    0.0000 N   0  0
   -0.6609   -1.3585    0.0000 C   0  0
   -1.9460   -2.0562    0.0000 C   0  0
   -3.2678   -1.3585    0.0000 C   0  0
   -3.2678    0.1469    0.0000 C   0  0
   -1.9460    0.8996    0.0000 C   0  0
   -0.6609    0.1469    0.0000 C   0  0
    3.0843    1.1566    0.0000 C   0  0
    2.4601    2.5335    0.0000 C   0  0
    0.9547    2.3683    0.0000 C   0  0
  1  2  1  0
  2  3  2  0
  3  4  1  0
  4  5  2  0
  5  6  1  0
  1  6  2  0
  7  8  1  0
  8  9  1  0
  9 10  2  0
 10 11  1  0
 11 12  1  0
 12 13  2  0
 13 14  1  0
 14 15  2  0
 15 16  1  0
  7 16  1  0
 11 16  2  0
 17 18  1  0
 18 19  2  0
  7 19  1  0
  8 17  2  0
  4  9  1  0
M  END
> <From>
www.bindingDB.org

> <BindingDB Reactant_set_id>
50504726

> <Ligand InChI>
InChI=1S/C16H11N3/c1-2-7-14-13(6-1)18-16(12-5-3-9-17-11-12)15-8-4-10-19(14)15/h1-11H

> <Ligand InChI Key>
YYLFSLFSCWVKLI-UHFFFAOYSA-N

> <BindingDB MonomerID>
50184333

> <BindingDB Ligand Name>
CHEMBL3823966

> <Target Name>
DNA repair protein RAD51 homolog 1

> <Target Source Organism According to Curator or DataSource>
Homo sapiens

> <Ki (nM)>


> <IC50 (nM)>
>100000

> <Kd (nM)>


> <EC50 (nM)>


> <kon (M-1-s-1)>


> <koff (s-1)>


> <pH>


> <Temp C>


> <Curation/DataSource>
ChEMBL

> <Article DOI>
10.1021/acs.jmedchem.5b01762

> <BindingDB Entry DOI>
10.7270/Q200041Q

> <PMID>
27049177

> <PubChem AID>


> <Patent Number>


> <Authors>
Lv, W; Budke, B; Pawlowski, M; Connell, PP; Kozikowski, AP

> <Date of publication>
5/26/2016

> <Date in BindingDB>
10/1/2017

> <Institution>
University of Illinois at Chicago

> <Link to Ligand in BindingDB>
http://www.bindingdb.org/bind/chemsearch/marvin/MolStructure.jsp?monomerid=50184333

> <Link to Ligand-Target Pair in BindingDB>
http://www.bindingdb.org/jsp/dbsearch/PrimarySearch_ki.jsp?energyterm=kJ/mole&tag=pol&polymerid=4676&target=DNA+repair+protein+RAD51+homolog+1&column=ki&startPg=0&Increment=50&submit=Search

> <Link to Ligand-Target Pair in BindingDB>
http://www.bindingdb.org/jsp/dbsearch/PrimarySearch_ki.jsp?energyterm=kJ/mole&tag=r21&monomerid=50184333&enzyme=DNA+repair+protein+RAD51+homolog+1&column=ki&startPg=0&Increment=50&submit=Search

> <Ligand HET ID in PDB>
7M5

> <PDB ID(s) for Ligand-Target Complex>
5MFP

> <PubChem CID of Ligand>
60148051

> <PubChem SID of Ligand>
346550357

> <ChEBI ID of Ligand>


> <ChEMBL ID of Ligand>
CHEMBL3823966

> <DrugBank ID of Ligand>


> <IUPHAR_GRAC ID of Ligand>


> <KEGG ID of Ligand>


> <ZINC ID of Ligand>


> <Number of Protein Chains in Target (bigger than 1 implies a multichain complex)>
1

> <BindingDB Target Chain Sequence>
MAMQMQLEANADTSVEEESFGPQPISRLEQCGINANDVKKLEEAGFHTVEAVAYAPKKELINIKGISEAKADKILAEAAKLVPMGFTTATEFHQRRSEIIQITTGSKELDKLLQGGIETGSITEMFGEFRTGKTQICHTLAVTCQLPIDRGGGEGKAMYIDTEGTFRPERLLAVAERYGLSGSDVLDNVAYARAFNTDHQTQLLYQASAMMVESRYALLIVDSATALYRTDYSGRGELSARQMHLARFLRMLLRLADEFGVAVVITNQVVAQVDGAAMFAADPKKPIGGNIIAHASTTRLYLRKGRGETRICKIYDSPCLPEAEAMFAINADGVGDAKD

> <PDB ID(s) of Target Chain>
1N0W,5JZC,5NP7,5NWL,8BQ2,8BR2,8BSC

> <UniProt (SwissProt) Recommended Name of Target Chain>
DNA repair protein RAD51 homolog 1

> <UniProt (SwissProt) Entry Name of Target Chain>
RAD51_HUMAN

> <UniProt (SwissProt) Primary ID of Target Chain>
Q06609

> <UniProt (SwissProt) Secondary ID(s) of Target Chain>
B0FXP0 B2R8T6 Q6FHX9 Q6ZNA8 Q9BV60

> <UniProt (SwissProt) Alternative ID(s) of Target Chain>


> <UniProt (TrEMBL) Submitted Name of Target Chain>


> <UniProt (TrEMBL) Entry Name of Target Chain>


> <UniProt (TrEMBL) Primary ID of Target Chain>


> <UniProt (TrEMBL) Secondary ID(s) of Target Chain>


> <UniProt (TrEMBL) Alternative ID(s) of Target Chain>


$$$$

  SciTegic12211613302D

 19 22  0  0  0  0            999 V2000
    5.8267   -3.6371    0.0000 N   0  0
    4.5254   -4.3830    0.0000 C   0  0
    3.2287   -3.6290    0.0000 C   0  0
    3.2335   -2.1297    0.0000 C   0  0
    4.5347   -1.3830    0.0000 C   0  0
    5.8314   -2.1371    0.0000 C   0  0
    0.6426    0.8996    0.0000 N   0  0
    1.9460    0.1469    0.0000 C   0  0
    1.9460   -1.3585    0.0000 C   0  0
    0.6426   -2.0562    0.0000 N   0  0
   -0.6609   -1.3585    0.0000 C   0  0
   -1.9460   -2.0562    0.0000 C   0  0
   -3.2678   -1.3585    0.0000 C   0  0
   -3.2678    0.1469    0.0000 C   0  0
   -1.9460    0.8996    0.0000 C   0  0
   -0.6609    0.1469    0.0000 C   0  0
    3.0843    1.1566    0.0000 C   0  0
    2.4601    2.5335    0.0000 C   0  0
    0.9547    2.3683    0.0000 C   0  0
  1  2  1  0
  2  3  2  0
  3  4  1  0
  4  5  2  0
  5  6  1  0
  1  6  2  0
  7  8  1  0
  8  9  1  0
  9 10  2  0
 10 11  1  0
 11 12  1  0
 12 13  2  0
 13 14  1  0
 14 15  2  0
 15 16  1  0
  7 16  1  0
 11 16  2  0
 17 18  1  0
 18 19  2  0
  7 19  1  0
  8 17  2  0
  4  9  1  0
M  END
> <From>
www.bindingDB.org

> <BindingDB Reactant_set_id>
50504727

> <Ligand InChI>
InChI=1S/C16H11N3/c1-2-5-14-13(4-1)18-16(12-7-9-17-10-8-12)15-6-3-11-19(14)15/h1-11H

> <Ligand InChI Key>
OLVKAAAANOJZJE-UHFFFAOYSA-N

> <BindingDB MonomerID>
50184334

> <BindingDB Ligand Name>
CHEMBL3822942

> <Target Name>
DNA repair protein RAD51 homolog 1

> <Target Source Organism According to Curator or DataSource>
Homo sapiens

> <Ki (nM)>


> <IC50 (nM)>
>100000

> <Kd (nM)>


> <EC50 (nM)>


> <kon (M-1-s-1)>


> <koff (s-1)>


> <pH>


> <Temp C>


> <Curation/DataSource>
ChEMBL

> <Article DOI>
10.1021/acs.jmedchem.5b01762

> <BindingDB Entry DOI>
10.7270/Q200041Q

> <PMID>
27049177

> <PubChem AID>


> <Patent Number>


> <Authors>
Lv, W; Budke, B; Pawlowski, M; Connell, PP; Kozikowski, AP

> <Date of publication>
5/26/2016

> <Date in BindingDB>
10/1/2017

> <Institution>
University of Illinois at Chicago

> <Link to Ligand in BindingDB>
http://www.bindingdb.org/bind/chemsearch/marvin/MolStructure.jsp?monomerid=50184334

> <Link to Ligand-Target Pair in BindingDB>
http://www.bindingdb.org/jsp/dbsearch/PrimarySearch_ki.jsp?energyterm=kJ/mole&tag=pol&polymerid=4676&target=DNA+repair+protein+RAD51+homolog+1&column=ki&startPg=0&Increment=50&submit=Search

> <Link to Ligand-Target Pair in BindingDB>
http://www.bindingdb.org/jsp/dbsearch/PrimarySearch_ki.jsp?energyterm=kJ/mole&tag=r21&monomerid=50184334&enzyme=DNA+repair+protein+RAD51+homolog+1&column=ki&startPg=0&Increment=50&submit=Search

> <Ligand HET ID in PDB>


> <PDB ID(s) for Ligand-Target Complex>


> <PubChem CID of Ligand>
60148052

> <PubChem SID of Ligand>
346550358

> <ChEBI ID of Ligand>


> <ChEMBL ID of Ligand>
CHEMBL3822942

> <DrugBank ID of Ligand>


> <IUPHAR_GRAC ID of Ligand>


> <KEGG ID of Ligand>


> <ZINC ID of Ligand>


> <Number of Protein Chains in Target (bigger than 1 implies a multichain complex)>
1

> <BindingDB Target Chain Sequence>
MAMQMQLEANADTSVEEESFGPQPISRLEQCGINANDVKKLEEAGFHTVEAVAYAPKKELINIKGISEAKADKILAEAAKLVPMGFTTATEFHQRRSEIIQITTGSKELDKLLQGGIETGSITEMFGEFRTGKTQICHTLAVTCQLPIDRGGGEGKAMYIDTEGTFRPERLLAVAERYGLSGSDVLDNVAYARAFNTDHQTQLLYQASAMMVESRYALLIVDSATALYRTDYSGRGELSARQMHLARFLRMLLRLADEFGVAVVITNQVVAQVDGAAMFAADPKKPIGGNIIAHASTTRLYLRKGRGETRICKIYDSPCLPEAEAMFAINADGVGDAKD

> <PDB ID(s) of Target Chain>
1N0W,5JZC,5NP7,5NWL,8BQ2,8BR2,8BSC

> <UniProt (SwissProt) Recommended Name of Target Chain>
DNA repair protein RAD51 homolog 1

> <UniProt (SwissProt) Entry Name of Target Chain>
RAD51_HUMAN

> <UniProt (SwissProt) Primary ID of Target Chain>
Q06609

> <UniProt (SwissProt) Secondary ID(s) of Target Chain>
B0FXP0 B2R8T6 Q6FHX9 Q6ZNA8 Q9BV60

> <UniProt (SwissProt) Alternative ID(s) of Target Chain>


> <UniProt (TrEMBL) Submitted Name of Target Chain>


> <UniProt (TrEMBL) Entry Name of Target Chain>


> <UniProt (TrEMBL) Primary ID of Target Chain>


> <UniProt (TrEMBL) Secondary ID(s) of Target Chain>


> <UniProt (TrEMBL) Alternative ID(s) of Target Chain>


$$$$

  SciTegic12211613302D

 22 25  0  0  0  0            999 V2000
    4.5254   -4.3830    0.0000 C   0  0
    5.8267   -3.6371    0.0000 C   0  0
    3.2287   -3.6290    0.0000 C   0  0
    3.2335   -2.1297    0.0000 C   0  0
    4.5347   -1.3830    0.0000 C   0  0
    5.8314   -2.1371    0.0000 C   0  0
    6.8641   -4.2403    0.0000 O   0  0
    0.6426    0.8996    0.0000 N   0  0
    1.9460    0.1469    0.0000 C   0  0
    1.9460   -1.3585    0.0000 C   0  0
    0.6426   -2.0562    0.0000 N   0  0
   -0.6609   -1.3585    0.0000 C   0  0
   -1.9460   -2.0562    0.0000 C   0  0
   -3.2678   -1.3585    0.0000 C   0  0
   -3.2678    0.1469    0.0000 C   0  0
   -1.9460    0.8996    0.0000 C   0  0
   -0.6609    0.1469    0.0000 C   0  0
    3.0843    1.1566    0.0000 C   0  0
    2.4601    2.5335    0.0000 C   0  0
    0.9547    2.3683    0.0000 C   0  0
   -4.5529   -2.1330    0.0000 O   0  0
   -5.6036   -1.5533    0.0000 C   0  0
  2  1  1  0
  1  3  2  0
  3  4  1  0
  4  5  2  0
  5  6  1  0
  2  6  2  0
  2  7  1  0
  8  9  1  0
  9 10  1  0
 10 11  2  0
 11 12  1  0
 12 13  1  0
 13 14  2  0
 14 15  1  0
 15 16  2  0
 16 17  1  0
  8 17  1  0
 12 17  2  0
 18 19  1  0
 19 20  2  0
  8 20  1  0
  9 18  2  0
 21 22  1  0
 14 21  1  0
  4 10  1  0
M  END
> <From>
www.bindingDB.org

> <BindingDB Reactant_set_id>
50504728

> <Ligand InChI>
InChI=1S/C18H14N2O2/c1-22-14-8-9-16-15(11-14)19-18(17-3-2-10-20(16)17)12-4-6-13(21)7-5-12/h2-11,21H,1H3

> <Ligand InChI Key>
QOWGZWUDFYRFJC-UHFFFAOYSA-N

> <BindingDB MonomerID>
50184337

> <BindingDB Ligand Name>
CHEMBL3823373

> <Target Name>
DNA repair protein RAD51 homolog 1

> <Target Source Organism According to Curator or DataSource>
Homo sapiens

> <Ki (nM)>


> <IC50 (nM)>
 35000

> <Kd (nM)>


> <EC50 (nM)>


> <kon (M-1-s-1)>


> <koff (s-1)>


> <pH>


> <Temp C>


> <Curation/DataSource>
ChEMBL

> <Article DOI>
10.1021/acs.jmedchem.5b01762

> <BindingDB Entry DOI>
10.7270/Q200041Q

> <PMID>
27049177

> <PubChem AID>


> <Patent Number>


> <Authors>
Lv, W; Budke, B; Pawlowski, M; Connell, PP; Kozikowski, AP

> <Date of publication>
5/26/2016

> <Date in BindingDB>
10/1/2017

> <Institution>
University of Illinois at Chicago

> <Link to Ligand in BindingDB>
http://www.bindingdb.org/bind/chemsearch/marvin/MolStructure.jsp?monomerid=50184337

> <Link to Ligand-Target Pair in BindingDB>
http://www.bindingdb.org/jsp/dbsearch/PrimarySearch_ki.jsp?energyterm=kJ/mole&tag=pol&polymerid=4676&target=DNA+repair+protein+RAD51+homolog+1&column=ki&startPg=0&Increment=50&submit=Search

> <Link to Ligand-Target Pair in BindingDB>
http://www.bindingdb.org/jsp/dbsearch/PrimarySearch_ki.jsp?energyterm=kJ/mole&tag=r21&monomerid=50184337&enzyme=DNA+repair+protein+RAD51+homolog+1&column=ki&startPg=0&Increment=50&submit=Search

> <Ligand HET ID in PDB>


> <PDB ID(s) for Ligand-Target Complex>


> <PubChem CID of Ligand>
127050406

> <PubChem SID of Ligand>
346550361

> <ChEBI ID of Ligand>


> <ChEMBL ID of Ligand>
CHEMBL3823373

> <DrugBank ID of Ligand>


> <IUPHAR_GRAC ID of Ligand>


> <KEGG ID of Ligand>


> <ZINC ID of Ligand>


> <Number of Protein Chains in Target (bigger than 1 implies a multichain complex)>
1

> <BindingDB Target Chain Sequence>
MAMQMQLEANADTSVEEESFGPQPISRLEQCGINANDVKKLEEAGFHTVEAVAYAPKKELINIKGISEAKADKILAEAAKLVPMGFTTATEFHQRRSEIIQITTGSKELDKLLQGGIETGSITEMFGEFRTGKTQICHTLAVTCQLPIDRGGGEGKAMYIDTEGTFRPERLLAVAERYGLSGSDVLDNVAYARAFNTDHQTQLLYQASAMMVESRYALLIVDSATALYRTDYSGRGELSARQMHLARFLRMLLRLADEFGVAVVITNQVVAQVDGAAMFAADPKKPIGGNIIAHASTTRLYLRKGRGETRICKIYDSPCLPEAEAMFAINADGVGDAKD

> <PDB ID(s) of Target Chain>
1N0W,5JZC,5NP7,5NWL,8BQ2,8BR2,8BSC

> <UniProt (SwissProt) Recommended Name of Target Chain>
DNA repair protein RAD51 homolog 1

> <UniProt (SwissProt) Entry Name of Target Chain>
RAD51_HUMAN

> <UniProt (SwissProt) Primary ID of Target Chain>
Q06609

> <UniProt (SwissProt) Secondary ID(s) of Target Chain>
B0FXP0 B2R8T6 Q6FHX9 Q6ZNA8 Q9BV60

> <UniProt (SwissProt) Alternative ID(s) of Target Chain>


> <UniProt (TrEMBL) Submitted Name of Target Chain>


> <UniProt (TrEMBL) Entry Name of Target Chain>


> <UniProt (TrEMBL) Primary ID of Target Chain>


> <UniProt (TrEMBL) Secondary ID(s) of Target Chain>


> <UniProt (TrEMBL) Alternative ID(s) of Target Chain>


$$$$

  SciTegic12211613302D

 22 25  0  0  0  0            999 V2000
    5.8267   -3.6371    0.0000 C   0  0
    4.5254   -4.3830    0.0000 C   0  0
    3.2287   -3.6290    0.0000 C   0  0
    3.2335   -2.1297    0.0000 C   0  0
    4.5347   -1.3830    0.0000 C   0  0
    5.8314   -2.1371    0.0000 C   0  0
    0.6426    0.8996    0.0000 N   0  0
    1.9460    0.1469    0.0000 C   0  0
    1.9460   -1.3585    0.0000 C   0  0
    0.6426   -2.0562    0.0000 N   0  0
   -0.6609   -1.3585    0.0000 C   0  0
   -1.9460   -2.0562    0.0000 C   0  0
   -3.2678   -1.3585    0.0000 C   0  0
   -3.2678    0.1469    0.0000 C   0  0
   -1.9460    0.8996    0.0000 C   0  0
   -0.6609    0.1469    0.0000 C   0  0
    3.0843    1.1566    0.0000 C   0  0
    2.4601    2.5335    0.0000 C   0  0
    0.9547    2.3683    0.0000 C   0  0
   -4.5529   -2.1330    0.0000 O   0  0
   -5.6036   -1.5533    0.0000 C   0  0
    6.8641   -4.2403    0.0000 N   0  0
  1  2  1  0
  2  3  2  0
  3  4  1  0
  4  5  2  0
  5  6  1  0
  1  6  2  0
  7  8  1  0
  8  9  1  0
  9 10  2  0
 10 11  1  0
 11 12  1  0
 12 13  2  0
 13 14  1  0
 14 15  2  0
 15 16  1  0
  7 16  1  0
 11 16  2  0
 17 18  1  0
 18 19  2  0
  7 19  1  0
  8 17  2  0
 13 20  1  0
  4  9  1  0
 20 21  1  0
  1 22  1  0
M  END
> <From>
www.bindingDB.org

> <BindingDB Reactant_set_id>
50504729

> <Ligand InChI>
InChI=1S/C18H15N3O/c1-22-14-8-9-16-15(11-14)20-18(17-3-2-10-21(16)17)12-4-6-13(19)7-5-12/h2-11H,19H2,1H3

> <Ligand InChI Key>
XYKNYNASOGBFBV-UHFFFAOYSA-N

> <BindingDB MonomerID>
50184339

> <BindingDB Ligand Name>
CHEMBL3824107

> <Target Name>
DNA repair protein RAD51 homolog 1

> <Target Source Organism According to Curator or DataSource>
Homo sapiens

> <Ki (nM)>


> <IC50 (nM)>
>100000

> <Kd (nM)>


> <EC50 (nM)>


> <kon (M-1-s-1)>


> <koff (s-1)>


> <pH>


> <Temp C>


> <Curation/DataSource>
ChEMBL

> <Article DOI>
10.1021/acs.jmedchem.5b01762

> <BindingDB Entry DOI>
10.7270/Q200041Q

> <PMID>
27049177

> <PubChem AID>


> <Patent Number>


> <Authors>
Lv, W; Budke, B; Pawlowski, M; Connell, PP; Kozikowski, AP

> <Date of publication>
5/26/2016

> <Date in BindingDB>
10/1/2017

> <Institution>
University of Illinois at Chicago

> <Link to Ligand in BindingDB>
http://www.bindingdb.org/bind/chemsearch/marvin/MolStructure.jsp?monomerid=50184339

> <Link to Ligand-Target Pair in BindingDB>
http://www.bindingdb.org/jsp/dbsearch/PrimarySearch_ki.jsp?energyterm=kJ/mole&tag=pol&polymerid=4676&target=DNA+repair+protein+RAD51+homolog+1&column=ki&startPg=0&Increment=50&submit=Search

> <Link to Ligand-Target Pair in BindingDB>
http://www.bindingdb.org/jsp/dbsearch/PrimarySearch_ki.jsp?energyterm=kJ/mole&tag=r21&monomerid=50184339&enzyme=DNA+repair+protein+RAD51+homolog+1&column=ki&startPg=0&Increment=50&submit=Search

> <Ligand HET ID in PDB>


> <PDB ID(s) for Ligand-Target Complex>


> <PubChem CID of Ligand>
127048584

> <PubChem SID of Ligand>
346550363

> <ChEBI ID of Ligand>


> <ChEMBL ID of Ligand>
CHEMBL3824107

> <DrugBank ID of Ligand>


> <IUPHAR_GRAC ID of Ligand>


> <KEGG ID of Ligand>


> <ZINC ID of Ligand>


> <Number of Protein Chains in Target (bigger than 1 implies a multichain complex)>
1

> <BindingDB Target Chain Sequence>
MAMQMQLEANADTSVEEESFGPQPISRLEQCGINANDVKKLEEAGFHTVEAVAYAPKKELINIKGISEAKADKILAEAAKLVPMGFTTATEFHQRRSEIIQITTGSKELDKLLQGGIETGSITEMFGEFRTGKTQICHTLAVTCQLPIDRGGGEGKAMYIDTEGTFRPERLLAVAERYGLSGSDVLDNVAYARAFNTDHQTQLLYQASAMMVESRYALLIVDSATALYRTDYSGRGELSARQMHLARFLRMLLRLADEFGVAVVITNQVVAQVDGAAMFAADPKKPIGGNIIAHASTTRLYLRKGRGETRICKIYDSPCLPEAEAMFAINADGVGDAKD

> <PDB ID(s) of Target Chain>
1N0W,5JZC,5NP7,5NWL,8BQ2,8BR2,8BSC

> <UniProt (SwissProt) Recommended Name of Target Chain>
DNA repair protein RAD51 homolog 1

> <UniProt (SwissProt) Entry Name of Target Chain>
RAD51_HUMAN

> <UniProt (SwissProt) Primary ID of Target Chain>
Q06609

> <UniProt (SwissProt) Secondary ID(s) of Target Chain>
B0FXP0 B2R8T6 Q6FHX9 Q6ZNA8 Q9BV60

> <UniProt (SwissProt) Alternative ID(s) of Target Chain>


> <UniProt (TrEMBL) Submitted Name of Target Chain>


> <UniProt (TrEMBL) Entry Name of Target Chain>


> <UniProt (TrEMBL) Primary ID of Target Chain>


> <UniProt (TrEMBL) Secondary ID(s) of Target Chain>


> <UniProt (TrEMBL) Alternative ID(s) of Target Chain>


$$$$

  SciTegic12211613302D

 21 24  0  0  0  0            999 V2000
    5.8267   -3.6371    0.0000 C   0  0
    4.5254   -4.3830    0.0000 C   0  0
    3.2287   -3.6290    0.0000 C   0  0
    3.2335   -2.1297    0.0000 C   0  0
    4.5347   -1.3830    0.0000 C   0  0
    5.8314   -2.1371    0.0000 C   0  0
    0.6426    0.8996    0.0000 N   0  0
    1.9460    0.1469    0.0000 C   0  0
    1.9460   -1.3585    0.0000 C   0  0
    0.6426   -2.0562    0.0000 N   0  0
   -0.6609   -1.3585    0.0000 C   0  0
   -1.9460   -2.0562    0.0000 C   0  0
   -3.2678   -1.3585    0.0000 C   0  0
   -3.2678    0.1469    0.0000 C   0  0
   -1.9460    0.8996    0.0000 C   0  0
   -0.6609    0.1469    0.0000 C   0  0
    3.0843    1.1566    0.0000 C   0  0
    2.4601    2.5335    0.0000 C   0  0
    0.9547    2.3683    0.0000 C   0  0
   -4.2955   -1.9782    0.0000 O   0  0
    6.8641   -4.2403    0.0000 O   0  0
  1  2  1  0
  2  3  2  0
  3  4  1  0
  4  5  2  0
  5  6  1  0
  1  6  2  0
  7  8  1  0
  8  9  1  0
  9 10  2  0
 10 11  1  0
 11 12  1  0
 12 13  2  0
 13 14  1  0
 14 15  2  0
 15 16  1  0
  7 16  1  0
 11 16  2  0
 17 18  1  0
 18 19  2  0
  7 19  1  0
  8 17  2  0
 13 20  1  0
  4  9  1  0
  1 21  1  0
M  END
> <From>
www.bindingDB.org

> <BindingDB Reactant_set_id>
50504730

> <Ligand InChI>
InChI=1S/C17H12N2O2/c20-12-5-3-11(4-6-12)17-16-2-1-9-19(16)15-8-7-13(21)10-14(15)18-17/h1-10,20-21H

> <Ligand InChI Key>
UABSOOKPIHWMSR-UHFFFAOYSA-N

> <BindingDB MonomerID>
50184340

> <BindingDB Ligand Name>
CHEMBL3822556

> <Target Name>
DNA repair protein RAD51 homolog 1

> <Target Source Organism According to Curator or DataSource>
Homo sapiens

> <Ki (nM)>


> <IC50 (nM)>
>100000

> <Kd (nM)>


> <EC50 (nM)>


> <kon (M-1-s-1)>


> <koff (s-1)>


> <pH>


> <Temp C>


> <Curation/DataSource>
ChEMBL

> <Article DOI>
10.1021/acs.jmedchem.5b01762

> <BindingDB Entry DOI>
10.7270/Q200041Q

> <PMID>
27049177

> <PubChem AID>


> <Patent Number>


> <Authors>
Lv, W; Budke, B; Pawlowski, M; Connell, PP; Kozikowski, AP

> <Date of publication>
5/26/2016

> <Date in BindingDB>
10/1/2017

> <Institution>
University of Illinois at Chicago

> <Link to Ligand in BindingDB>
http://www.bindingdb.org/bind/chemsearch/marvin/MolStructure.jsp?monomerid=50184340

> <Link to Ligand-Target Pair in BindingDB>
http://www.bindingdb.org/jsp/dbsearch/PrimarySearch_ki.jsp?energyterm=kJ/mole&tag=pol&polymerid=4676&target=DNA+repair+protein+RAD51+homolog+1&column=ki&startPg=0&Increment=50&submit=Search

> <Link to Ligand-Target Pair in BindingDB>
http://www.bindingdb.org/jsp/dbsearch/PrimarySearch_ki.jsp?energyterm=kJ/mole&tag=r21&monomerid=50184340&enzyme=DNA+repair+protein+RAD51+homolog+1&column=ki&startPg=0&Increment=50&submit=Search

> <Ligand HET ID in PDB>


> <PDB ID(s) for Ligand-Target Complex>


> <PubChem CID of Ligand>
127049236

> <PubChem SID of Ligand>
346550364

> <ChEBI ID of Ligand>


> <ChEMBL ID of Ligand>
CHEMBL3822556

> <DrugBank ID of Ligand>


> <IUPHAR_GRAC ID of Ligand>


> <KEGG ID of Ligand>


> <ZINC ID of Ligand>


> <Number of Protein Chains in Target (bigger than 1 implies a multichain complex)>
1

> <BindingDB Target Chain Sequence>
MAMQMQLEANADTSVEEESFGPQPISRLEQCGINANDVKKLEEAGFHTVEAVAYAPKKELINIKGISEAKADKILAEAAKLVPMGFTTATEFHQRRSEIIQITTGSKELDKLLQGGIETGSITEMFGEFRTGKTQICHTLAVTCQLPIDRGGGEGKAMYIDTEGTFRPERLLAVAERYGLSGSDVLDNVAYARAFNTDHQTQLLYQASAMMVESRYALLIVDSATALYRTDYSGRGELSARQMHLARFLRMLLRLADEFGVAVVITNQVVAQVDGAAMFAADPKKPIGGNIIAHASTTRLYLRKGRGETRICKIYDSPCLPEAEAMFAINADGVGDAKD

> <PDB ID(s) of Target Chain>
1N0W,5JZC,5NP7,5NWL,8BQ2,8BR2,8BSC

> <UniProt (SwissProt) Recommended Name of Target Chain>
DNA repair protein RAD51 homolog 1

> <UniProt (SwissProt) Entry Name of Target Chain>
RAD51_HUMAN

> <UniProt (SwissProt) Primary ID of Target Chain>
Q06609

> <UniProt (SwissProt) Secondary ID(s) of Target Chain>
B0FXP0 B2R8T6 Q6FHX9 Q6ZNA8 Q9BV60

> <UniProt (SwissProt) Alternative ID(s) of Target Chain>


> <UniProt (TrEMBL) Submitted Name of Target Chain>


> <UniProt (TrEMBL) Entry Name of Target Chain>


> <UniProt (TrEMBL) Primary ID of Target Chain>


> <UniProt (TrEMBL) Secondary ID(s) of Target Chain>


> <UniProt (TrEMBL) Alternative ID(s) of Target Chain>


$$$$

  SciTegic12211613302D

 23 26  0  0  0  0            999 V2000
    5.8267   -3.6371    0.0000 C   0  0
    4.5254   -4.3830    0.0000 C   0  0
    3.2287   -3.6290    0.0000 C   0  0
    3.2335   -2.1297    0.0000 C   0  0
    4.5347   -1.3830    0.0000 C   0  0
    5.8314   -2.1371    0.0000 C   0  0
    0.6426    0.8996    0.0000 N   0  0
    1.9460    0.1469    0.0000 C   0  0
    1.9460   -1.3585    0.0000 C   0  0
    0.6426   -2.0562    0.0000 N   0  0
   -0.6609   -1.3585    0.0000 C   0  0
   -1.9460   -2.0562    0.0000 C   0  0
   -3.2678   -1.3585    0.0000 C   0  0
   -3.2678    0.1469    0.0000 C   0  0
   -1.9460    0.8996    0.0000 C   0  0
   -0.6609    0.1469    0.0000 C   0  0
    3.0843    1.1566    0.0000 C   0  0
    2.4601    2.5335    0.0000 C   0  0
    0.9547    2.3683    0.0000 C   0  0
   -4.2955   -1.9782    0.0000 O   0  0
    7.1257   -4.3889    0.0000 N   0  3
    8.1660   -3.7907    0.0000 O   0  0
    7.1240   -5.5889    0.0000 O   0  5
  1  2  1  0
  2  3  2  0
  3  4  1  0
  4  5  2  0
  5  6  1  0
  1  6  2  0
  7  8  1  0
  8  9  1  0
  9 10  2  0
 10 11  1  0
 11 12  1  0
 12 13  2  0
 13 14  1  0
 14 15  2  0
 15 16  1  0
  7 16  1  0
 11 16  2  0
 17 18  1  0
 18 19  2  0
  7 19  1  0
  8 17  2  0
 13 20  1  0
  4  9  1  0
 21 22  2  0
 21 23  1  0
  1 21  1  0
M  CHG  2  21   1  23  -1
M  END
> <From>
www.bindingDB.org

> <BindingDB Reactant_set_id>
50504731

> <Ligand InChI>
InChI=1S/C17H11N3O3/c21-13-7-8-15-14(10-13)18-17(16-2-1-9-19(15)16)11-3-5-12(6-4-11)20(22)23/h1-10,21H

> <Ligand InChI Key>
ZTFWMUHYFASVIP-UHFFFAOYSA-N

> <BindingDB MonomerID>
50184341

> <BindingDB Ligand Name>
CHEMBL3824216

> <Target Name>
DNA repair protein RAD51 homolog 1

> <Target Source Organism According to Curator or DataSource>
Homo sapiens

> <Ki (nM)>


> <IC50 (nM)>
 57800

> <Kd (nM)>


> <EC50 (nM)>


> <kon (M-1-s-1)>


> <koff (s-1)>


> <pH>


> <Temp C>


> <Curation/DataSource>
ChEMBL

> <Article DOI>
10.1021/acs.jmedchem.5b01762

> <BindingDB Entry DOI>
10.7270/Q200041Q

> <PMID>
27049177

> <PubChem AID>


> <Patent Number>


> <Authors>
Lv, W; Budke, B; Pawlowski, M; Connell, PP; Kozikowski, AP

> <Date of publication>
5/26/2016

> <Date in BindingDB>
10/1/2017

> <Institution>
University of Illinois at Chicago

> <Link to Ligand in BindingDB>
http://www.bindingdb.org/bind/chemsearch/marvin/MolStructure.jsp?monomerid=50184341

> <Link to Ligand-Target Pair in BindingDB>
http://www.bindingdb.org/jsp/dbsearch/PrimarySearch_ki.jsp?energyterm=kJ/mole&tag=pol&polymerid=4676&target=DNA+repair+protein+RAD51+homolog+1&column=ki&startPg=0&Increment=50&submit=Search

> <Link to Ligand-Target Pair in BindingDB>
http://www.bindingdb.org/jsp/dbsearch/PrimarySearch_ki.jsp?energyterm=kJ/mole&tag=r21&monomerid=50184341&enzyme=DNA+repair+protein+RAD51+homolog+1&column=ki&startPg=0&Increment=50&submit=Search

> <Ligand HET ID in PDB>


> <PDB ID(s) for Ligand-Target Complex>


> <PubChem CID of Ligand>
127052644

> <PubChem SID of Ligand>
346550365

> <ChEBI ID of Ligand>


> <ChEMBL ID of Ligand>
CHEMBL3824216

> <DrugBank ID of Ligand>


> <IUPHAR_GRAC ID of Ligand>


> <KEGG ID of Ligand>


> <ZINC ID of Ligand>


> <Number of Protein Chains in Target (bigger than 1 implies a multichain complex)>
1

> <BindingDB Target Chain Sequence>
MAMQMQLEANADTSVEEESFGPQPISRLEQCGINANDVKKLEEAGFHTVEAVAYAPKKELINIKGISEAKADKILAEAAKLVPMGFTTATEFHQRRSEIIQITTGSKELDKLLQGGIETGSITEMFGEFRTGKTQICHTLAVTCQLPIDRGGGEGKAMYIDTEGTFRPERLLAVAERYGLSGSDVLDNVAYARAFNTDHQTQLLYQASAMMVESRYALLIVDSATALYRTDYSGRGELSARQMHLARFLRMLLRLADEFGVAVVITNQVVAQVDGAAMFAADPKKPIGGNIIAHASTTRLYLRKGRGETRICKIYDSPCLPEAEAMFAINADGVGDAKD

> <PDB ID(s) of Target Chain>
1N0W,5JZC,5NP7,5NWL,8BQ2,8BR2,8BSC

> <UniProt (SwissProt) Recommended Name of Target Chain>
DNA repair protein RAD51 homolog 1

> <UniProt (SwissProt) Entry Name of Target Chain>
RAD51_HUMAN

> <UniProt (SwissProt) Primary ID of Target Chain>
Q06609

> <UniProt (SwissProt) Secondary ID(s) of Target Chain>
B0FXP0 B2R8T6 Q6FHX9 Q6ZNA8 Q9BV60

> <UniProt (SwissProt) Alternative ID(s) of Target Chain>


> <UniProt (TrEMBL) Submitted Name of Target Chain>


> <UniProt (TrEMBL) Entry Name of Target Chain>


> <UniProt (TrEMBL) Primary ID of Target Chain>


> <UniProt (TrEMBL) Secondary ID(s) of Target Chain>


> <UniProt (TrEMBL) Alternative ID(s) of Target Chain>


$$$$

  SciTegic12211613302D

 21 24  0  0  0  0            999 V2000
    5.8267   -3.6371    0.0000 C   0  0
    4.5254   -4.3830    0.0000 C   0  0
    3.2287   -3.6290    0.0000 C   0  0
    3.2335   -2.1297    0.0000 C   0  0
    4.5347   -1.3830    0.0000 C   0  0
    5.8314   -2.1371    0.0000 C   0  0
    0.6426    0.8996    0.0000 N   0  0
    1.9460    0.1469    0.0000 C   0  0
    1.9460   -1.3585    0.0000 C   0  0
    0.6426   -2.0562    0.0000 N   0  0
   -0.6609   -1.3585    0.0000 C   0  0
   -1.9460   -2.0562    0.0000 C   0  0
   -3.2678   -1.3585    0.0000 C   0  0
   -3.2678    0.1469    0.0000 C   0  0
   -1.9460    0.8996    0.0000 C   0  0
   -0.6609    0.1469    0.0000 C   0  0
    3.0843    1.1566    0.0000 C   0  0
    2.4601    2.5335    0.0000 C   0  0
    0.9547    2.3683    0.0000 C   0  0
   -4.2955   -1.9782    0.0000 O   0  0
    6.8641   -4.2403    0.0000 N   0  0
  1  2  1  0
  2  3  2  0
  3  4  1  0
  4  5  2  0
  5  6  1  0
  1  6  2  0
  7  8  1  0
  8  9  1  0
  9 10  2  0
 10 11  1  0
 11 12  1  0
 12 13  2  0
 13 14  1  0
 14 15  2  0
 15 16  1  0
  7 16  1  0
 11 16  2  0
 17 18  1  0
 18 19  2  0
  7 19  1  0
  8 17  2  0
 13 20  1  0
  4  9  1  0
  1 21  1  0
M  END
> <From>
www.bindingDB.org

> <BindingDB Reactant_set_id>
50504732

> <Ligand InChI>
InChI=1S/C17H13N3O/c18-12-5-3-11(4-6-12)17-16-2-1-9-20(16)15-8-7-13(21)10-14(15)19-17/h1-10,21H,18H2

> <Ligand InChI Key>
PELQZHZYRKUEPL-UHFFFAOYSA-N

> <BindingDB MonomerID>
50184342

> <BindingDB Ligand Name>
CHEMBL3823002

> <Target Name>
DNA repair protein RAD51 homolog 1

> <Target Source Organism According to Curator or DataSource>
Homo sapiens

> <Ki (nM)>


> <IC50 (nM)>
 96900

> <Kd (nM)>


> <EC50 (nM)>


> <kon (M-1-s-1)>


> <koff (s-1)>


> <pH>


> <Temp C>


> <Curation/DataSource>
ChEMBL

> <Article DOI>
10.1021/acs.jmedchem.5b01762

> <BindingDB Entry DOI>
10.7270/Q200041Q

> <PMID>
27049177

> <PubChem AID>


> <Patent Number>


> <Authors>
Lv, W; Budke, B; Pawlowski, M; Connell, PP; Kozikowski, AP

> <Date of publication>
5/26/2016

> <Date in BindingDB>
10/1/2017

> <Institution>
University of Illinois at Chicago

> <Link to Ligand in BindingDB>
http://www.bindingdb.org/bind/chemsearch/marvin/MolStructure.jsp?monomerid=50184342

> <Link to Ligand-Target Pair in BindingDB>
http://www.bindingdb.org/jsp/dbsearch/PrimarySearch_ki.jsp?energyterm=kJ/mole&tag=pol&polymerid=4676&target=DNA+repair+protein+RAD51+homolog+1&column=ki&startPg=0&Increment=50&submit=Search

> <Link to Ligand-Target Pair in BindingDB>
http://www.bindingdb.org/jsp/dbsearch/PrimarySearch_ki.jsp?energyterm=kJ/mole&tag=r21&monomerid=50184342&enzyme=DNA+repair+protein+RAD51+homolog+1&column=ki&startPg=0&Increment=50&submit=Search

> <Ligand HET ID in PDB>


> <PDB ID(s) for Ligand-Target Complex>


> <PubChem CID of Ligand>
127051390

> <PubChem SID of Ligand>
346550366

> <ChEBI ID of Ligand>


> <ChEMBL ID of Ligand>
CHEMBL3823002

> <DrugBank ID of Ligand>


> <IUPHAR_GRAC ID of Ligand>


> <KEGG ID of Ligand>


> <ZINC ID of Ligand>


> <Number of Protein Chains in Target (bigger than 1 implies a multichain complex)>
1

> <BindingDB Target Chain Sequence>
MAMQMQLEANADTSVEEESFGPQPISRLEQCGINANDVKKLEEAGFHTVEAVAYAPKKELINIKGISEAKADKILAEAAKLVPMGFTTATEFHQRRSEIIQITTGSKELDKLLQGGIETGSITEMFGEFRTGKTQICHTLAVTCQLPIDRGGGEGKAMYIDTEGTFRPERLLAVAERYGLSGSDVLDNVAYARAFNTDHQTQLLYQASAMMVESRYALLIVDSATALYRTDYSGRGELSARQMHLARFLRMLLRLADEFGVAVVITNQVVAQVDGAAMFAADPKKPIGGNIIAHASTTRLYLRKGRGETRICKIYDSPCLPEAEAMFAINADGVGDAKD

> <PDB ID(s) of Target Chain>
1N0W,5JZC,5NP7,5NWL,8BQ2,8BR2,8BSC

> <UniProt (SwissProt) Recommended Name of Target Chain>
DNA repair protein RAD51 homolog 1

> <UniProt (SwissProt) Entry Name of Target Chain>
RAD51_HUMAN

> <UniProt (SwissProt) Primary ID of Target Chain>
Q06609

> <UniProt (SwissProt) Secondary ID(s) of Target Chain>
B0FXP0 B2R8T6 Q6FHX9 Q6ZNA8 Q9BV60

> <UniProt (SwissProt) Alternative ID(s) of Target Chain>


> <UniProt (TrEMBL) Submitted Name of Target Chain>


> <UniProt (TrEMBL) Entry Name of Target Chain>


> <UniProt (TrEMBL) Primary ID of Target Chain>


> <UniProt (TrEMBL) Secondary ID(s) of Target Chain>


> <UniProt (TrEMBL) Alternative ID(s) of Target Chain>


$$$$

  SciTegic12211613302D

 21 24  0  0  0  0            999 V2000
    5.8267   -3.6371    0.0000 C   0  0
    4.5254   -4.3830    0.0000 C   0  0
    3.2287   -3.6290    0.0000 C   0  0
    3.2335   -2.1297    0.0000 C   0  0
    4.5347   -1.3830    0.0000 C   0  0
    5.8314   -2.1371    0.0000 C   0  0
    0.6426    0.8996    0.0000 N   0  0
    1.9460    0.1469    0.0000 C   0  0
    1.9460   -1.3585    0.0000 C   0  0
    0.6426   -2.0562    0.0000 N   0  0
   -0.6609   -1.3585    0.0000 C   0  0
   -1.9460   -2.0562    0.0000 C   0  0
   -3.2678   -1.3585    0.0000 C   0  0
   -3.2678    0.1469    0.0000 C   0  0
   -1.9460    0.8996    0.0000 C   0  0
   -0.6609    0.1469    0.0000 C   0  0
    3.0843    1.1566    0.0000 C   0  0
    2.4601    2.5335    0.0000 C   0  0
    0.9547    2.3683    0.0000 C   0  0
    6.8641   -4.2403    0.0000 N   0  0
   -4.2955   -1.9782    0.0000 F   0  0
  1  2  1  0
  2  3  2  0
  3  4  1  0
  4  5  2  0
  5  6  1  0
  1  6  2  0
  7  8  1  0
  8  9  1  0
  9 10  2  0
 10 11  1  0
 11 12  1  0
 12 13  2  0
 13 14  1  0
 14 15  2  0
 15 16  1  0
  7 16  1  0
 11 16  2  0
 17 18  1  0
 18 19  2  0
  7 19  1  0
  8 17  2  0
  4  9  1  0
  1 20  1  0
 13 21  1  0
M  END
> <From>
www.bindingDB.org

> <BindingDB Reactant_set_id>
50504733

> <Ligand InChI>
InChI=1S/C17H12FN3/c18-12-5-8-15-14(10-12)20-17(16-2-1-9-21(15)16)11-3-6-13(19)7-4-11/h1-10H,19H2

> <Ligand InChI Key>
LIDCYMASVFNFNC-UHFFFAOYSA-N

> <BindingDB MonomerID>
50184344

> <BindingDB Ligand Name>
CHEMBL3823899

> <Target Name>
DNA repair protein RAD51 homolog 1

> <Target Source Organism According to Curator or DataSource>
Homo sapiens

> <Ki (nM)>


> <IC50 (nM)>
 81500

> <Kd (nM)>


> <EC50 (nM)>


> <kon (M-1-s-1)>


> <koff (s-1)>


> <pH>


> <Temp C>


> <Curation/DataSource>
ChEMBL

> <Article DOI>
10.1021/acs.jmedchem.5b01762

> <BindingDB Entry DOI>
10.7270/Q200041Q

> <PMID>
27049177

> <PubChem AID>


> <Patent Number>


> <Authors>
Lv, W; Budke, B; Pawlowski, M; Connell, PP; Kozikowski, AP

> <Date of publication>
5/26/2016

> <Date in BindingDB>
10/1/2017

> <Institution>
University of Illinois at Chicago

> <Link to Ligand in BindingDB>
http://www.bindingdb.org/bind/chemsearch/marvin/MolStructure.jsp?monomerid=50184344

> <Link to Ligand-Target Pair in BindingDB>
http://www.bindingdb.org/jsp/dbsearch/PrimarySearch_ki.jsp?energyterm=kJ/mole&tag=pol&polymerid=4676&target=DNA+repair+protein+RAD51+homolog+1&column=ki&startPg=0&Increment=50&submit=Search

> <Link to Ligand-Target Pair in BindingDB>
http://www.bindingdb.org/jsp/dbsearch/PrimarySearch_ki.jsp?energyterm=kJ/mole&tag=r21&monomerid=50184344&enzyme=DNA+repair+protein+RAD51+homolog+1&column=ki&startPg=0&Increment=50&submit=Search

> <Ligand HET ID in PDB>


> <PDB ID(s) for Ligand-Target Complex>


> <PubChem CID of Ligand>
127050408

> <PubChem SID of Ligand>
346550368

> <ChEBI ID of Ligand>


> <ChEMBL ID of Ligand>
CHEMBL3823899

> <DrugBank ID of Ligand>


> <IUPHAR_GRAC ID of Ligand>


> <KEGG ID of Ligand>


> <ZINC ID of Ligand>


> <Number of Protein Chains in Target (bigger than 1 implies a multichain complex)>
1

> <BindingDB Target Chain Sequence>
MAMQMQLEANADTSVEEESFGPQPISRLEQCGINANDVKKLEEAGFHTVEAVAYAPKKELINIKGISEAKADKILAEAAKLVPMGFTTATEFHQRRSEIIQITTGSKELDKLLQGGIETGSITEMFGEFRTGKTQICHTLAVTCQLPIDRGGGEGKAMYIDTEGTFRPERLLAVAERYGLSGSDVLDNVAYARAFNTDHQTQLLYQASAMMVESRYALLIVDSATALYRTDYSGRGELSARQMHLARFLRMLLRLADEFGVAVVITNQVVAQVDGAAMFAADPKKPIGGNIIAHASTTRLYLRKGRGETRICKIYDSPCLPEAEAMFAINADGVGDAKD

> <PDB ID(s) of Target Chain>
1N0W,5JZC,5NP7,5NWL,8BQ2,8BR2,8BSC

> <UniProt (SwissProt) Recommended Name of Target Chain>
DNA repair protein RAD51 homolog 1

> <UniProt (SwissProt) Entry Name of Target Chain>
RAD51_HUMAN

> <UniProt (SwissProt) Primary ID of Target Chain>
Q06609

> <UniProt (SwissProt) Secondary ID(s) of Target Chain>
B0FXP0 B2R8T6 Q6FHX9 Q6ZNA8 Q9BV60

> <UniProt (SwissProt) Alternative ID(s) of Target Chain>


> <UniProt (TrEMBL) Submitted Name of Target Chain>


> <UniProt (TrEMBL) Entry Name of Target Chain>


> <UniProt (TrEMBL) Primary ID of Target Chain>


> <UniProt (TrEMBL) Secondary ID(s) of Target Chain>


> <UniProt (TrEMBL) Alternative ID(s) of Target Chain>


$$$$

  SciTegic12211613302D

 22 25  0  0  0  0            999 V2000
    5.8267   -3.6371    0.0000 C   0  0
    4.5254   -4.3830    0.0000 C   0  0
    3.2287   -3.6290    0.0000 C   0  0
    3.2335   -2.1297    0.0000 C   0  0
    4.5347   -1.3830    0.0000 C   0  0
    5.8314   -2.1371    0.0000 C   0  0
    0.6426    0.8996    0.0000 N   0  0
    1.9460    0.1469    0.0000 C   0  0
    1.9460   -1.3585    0.0000 C   0  0
    0.6426   -2.0562    0.0000 N   0  0
   -0.6609   -1.3585    0.0000 C   0  0
   -1.9460   -2.0562    0.0000 C   0  0
   -3.2678   -1.3585    0.0000 C   0  0
   -3.2678    0.1469    0.0000 C   0  0
   -1.9460    0.8996    0.0000 C   0  0
   -0.6609    0.1469    0.0000 C   0  0
    3.0843    1.1566    0.0000 C   0  0
    2.4601    2.5335    0.0000 C   0  0
    0.9547    2.3683    0.0000 C   0  0
    6.8641   -4.2403    0.0000 N   0  0
   -4.2955   -1.9782    0.0000 F   0  0
   -4.3053    0.7500    0.0000 F   0  0
  1  2  1  0
  2  3  2  0
  3  4  1  0
  4  5  2  0
  5  6  1  0
  1  6  2  0
  7  8  1  0
  8  9  1  0
  9 10  2  0
 10 11  1  0
 11 12  1  0
 12 13  2  0
 13 14  1  0
 14 15  2  0
 15 16  1  0
  7 16  1  0
 11 16  2  0
 17 18  1  0
 18 19  2  0
  7 19  1  0
  8 17  2  0
  4  9  1  0
  1 20  1  0
 13 21  1  0
 14 22  1  0
M  END
> <From>
www.bindingDB.org

> <BindingDB Reactant_set_id>
50504734

> <Ligand InChI>
InChI=1S/C17H11F2N3/c18-12-8-14-16(9-13(12)19)22-7-1-2-15(22)17(21-14)10-3-5-11(20)6-4-10/h1-9H,20H2

> <Ligand InChI Key>
HRXNUKWKUZJZJG-UHFFFAOYSA-N

> <BindingDB MonomerID>
50184372

> <BindingDB Ligand Name>
CHEMBL3823795

> <Target Name>
DNA repair protein RAD51 homolog 1

> <Target Source Organism According to Curator or DataSource>
Homo sapiens

> <Ki (nM)>


> <IC50 (nM)>
>100000

> <Kd (nM)>


> <EC50 (nM)>


> <kon (M-1-s-1)>


> <koff (s-1)>


> <pH>


> <Temp C>


> <Curation/DataSource>
ChEMBL

> <Article DOI>
10.1021/acs.jmedchem.5b01762

> <BindingDB Entry DOI>
10.7270/Q200041Q

> <PMID>
27049177

> <PubChem AID>


> <Patent Number>


> <Authors>
Lv, W; Budke, B; Pawlowski, M; Connell, PP; Kozikowski, AP

> <Date of publication>
5/26/2016

> <Date in BindingDB>
10/1/2017

> <Institution>
University of Illinois at Chicago

> <Link to Ligand in BindingDB>
http://www.bindingdb.org/bind/chemsearch/marvin/MolStructure.jsp?monomerid=50184372

> <Link to Ligand-Target Pair in BindingDB>
http://www.bindingdb.org/jsp/dbsearch/PrimarySearch_ki.jsp?energyterm=kJ/mole&tag=pol&polymerid=4676&target=DNA+repair+protein+RAD51+homolog+1&column=ki&startPg=0&Increment=50&submit=Search

> <Link to Ligand-Target Pair in BindingDB>
http://www.bindingdb.org/jsp/dbsearch/PrimarySearch_ki.jsp?energyterm=kJ/mole&tag=r21&monomerid=50184372&enzyme=DNA+repair+protein+RAD51+homolog+1&column=ki&startPg=0&Increment=50&submit=Search

> <Ligand HET ID in PDB>


> <PDB ID(s) for Ligand-Target Complex>


> <PubChem CID of Ligand>
127050410

> <PubChem SID of Ligand>
346550370

> <ChEBI ID of Ligand>


> <ChEMBL ID of Ligand>
CHEMBL3823795

> <DrugBank ID of Ligand>


> <IUPHAR_GRAC ID of Ligand>


> <KEGG ID of Ligand>


> <ZINC ID of Ligand>


> <Number of Protein Chains in Target (bigger than 1 implies a multichain complex)>
1

> <BindingDB Target Chain Sequence>
MAMQMQLEANADTSVEEESFGPQPISRLEQCGINANDVKKLEEAGFHTVEAVAYAPKKELINIKGISEAKADKILAEAAKLVPMGFTTATEFHQRRSEIIQITTGSKELDKLLQGGIETGSITEMFGEFRTGKTQICHTLAVTCQLPIDRGGGEGKAMYIDTEGTFRPERLLAVAERYGLSGSDVLDNVAYARAFNTDHQTQLLYQASAMMVESRYALLIVDSATALYRTDYSGRGELSARQMHLARFLRMLLRLADEFGVAVVITNQVVAQVDGAAMFAADPKKPIGGNIIAHASTTRLYLRKGRGETRICKIYDSPCLPEAEAMFAINADGVGDAKD

> <PDB ID(s) of Target Chain>
1N0W,5JZC,5NP7,5NWL,8BQ2,8BR2,8BSC

> <UniProt (SwissProt) Recommended Name of Target Chain>
DNA repair protein RAD51 homolog 1

> <UniProt (SwissProt) Entry Name of Target Chain>
RAD51_HUMAN

> <UniProt (SwissProt) Primary ID of Target Chain>
Q06609

> <UniProt (SwissProt) Secondary ID(s) of Target Chain>
B0FXP0 B2R8T6 Q6FHX9 Q6ZNA8 Q9BV60

> <UniProt (SwissProt) Alternative ID(s) of Target Chain>


> <UniProt (TrEMBL) Submitted Name of Target Chain>


> <UniProt (TrEMBL) Entry Name of Target Chain>


> <UniProt (TrEMBL) Primary ID of Target Chain>


> <UniProt (TrEMBL) Secondary ID(s) of Target Chain>


> <UniProt (TrEMBL) Alternative ID(s) of Target Chain>


$$$$

  SciTegic12211613302D

 21 24  0  0  0  0            999 V2000
    0.6426    0.8996    0.0000 N   0  0
    1.9460    0.1469    0.0000 C   0  0
    1.9460   -1.3585    0.0000 C   0  0
    0.6426   -2.0562    0.0000 N   0  0
   -0.6609   -1.3585    0.0000 C   0  0
   -1.9460   -2.0562    0.0000 C   0  0
   -3.2678   -1.3585    0.0000 C   0  0
   -3.2678    0.1469    0.0000 C   0  0
   -1.9460    0.8996    0.0000 C   0  0
   -0.6609    0.1469    0.0000 C   0  0
    3.0843    1.1566    0.0000 C   0  0
    2.4601    2.5335    0.0000 C   0  0
    0.9547    2.3683    0.0000 C   0  0
    3.2287   -3.6290    0.0000 C   0  0
    3.2335   -2.1297    0.0000 C   0  0
    4.5347   -1.3830    0.0000 C   0  0
    5.8314   -2.1371    0.0000 C   0  0
    5.8267   -3.6371    0.0000 C   0  0
    4.5254   -4.3830    0.0000 N   0  0
   -4.5529   -2.1330    0.0000 O   0  0
   -5.6036   -1.5533    0.0000 C   0  0
  1  2  1  0
  2  3  1  0
  3  4  2  0
  4  5  1  0
  5  6  1  0
  6  7  2  0
  7  8  1  0
  8  9  2  0
  9 10  1  0
  1 10  1  0
  5 10  2  0
 11 12  1  0
 12 13  2  0
  1 13  1  0
  2 11  2  0
 14 15  1  0
 15 16  2  0
 16 17  1  0
 17 18  2  0
 18 19  1  0
 14 19  2  0
  3 15  1  0
 20 21  1  0
  7 20  1  0
M  END
> <From>
www.bindingDB.org

> <BindingDB Reactant_set_id>
50504735

> <Ligand InChI>
InChI=1S/C17H13N3O/c1-21-13-6-7-15-14(10-13)19-17(12-4-2-8-18-11-12)16-5-3-9-20(15)16/h2-11H,1H3

> <Ligand InChI Key>
YOTHGRKRTYTRSN-UHFFFAOYSA-N

> <BindingDB MonomerID>
50184374

> <BindingDB Ligand Name>
CHEMBL3823248

> <Target Name>
DNA repair protein RAD51 homolog 1

> <Target Source Organism According to Curator or DataSource>
Homo sapiens

> <Ki (nM)>


> <IC50 (nM)>
>100000

> <Kd (nM)>


> <EC50 (nM)>


> <kon (M-1-s-1)>


> <koff (s-1)>


> <pH>


> <Temp C>


> <Curation/DataSource>
ChEMBL

> <Article DOI>
10.1021/acs.jmedchem.5b01762

> <BindingDB Entry DOI>
10.7270/Q200041Q

> <PMID>
27049177

> <PubChem AID>


> <Patent Number>


> <Authors>
Lv, W; Budke, B; Pawlowski, M; Connell, PP; Kozikowski, AP

> <Date of publication>
5/26/2016

> <Date in BindingDB>
10/1/2017

> <Institution>
University of Illinois at Chicago

> <Link to Ligand in BindingDB>
http://www.bindingdb.org/bind/chemsearch/marvin/MolStructure.jsp?monomerid=50184374

> <Link to Ligand-Target Pair in BindingDB>
http://www.bindingdb.org/jsp/dbsearch/PrimarySearch_ki.jsp?energyterm=kJ/mole&tag=pol&polymerid=4676&target=DNA+repair+protein+RAD51+homolog+1&column=ki&startPg=0&Increment=50&submit=Search

> <Link to Ligand-Target Pair in BindingDB>
http://www.bindingdb.org/jsp/dbsearch/PrimarySearch_ki.jsp?energyterm=kJ/mole&tag=r21&monomerid=50184374&enzyme=DNA+repair+protein+RAD51+homolog+1&column=ki&startPg=0&Increment=50&submit=Search

> <Ligand HET ID in PDB>


> <PDB ID(s) for Ligand-Target Complex>


> <PubChem CID of Ligand>
127050412

> <PubChem SID of Ligand>
346550372

> <ChEBI ID of Ligand>


> <ChEMBL ID of Ligand>
CHEMBL3823248

> <DrugBank ID of Ligand>


> <IUPHAR_GRAC ID of Ligand>


> <KEGG ID of Ligand>


> <ZINC ID of Ligand>


> <Number of Protein Chains in Target (bigger than 1 implies a multichain complex)>
1

> <BindingDB Target Chain Sequence>
MAMQMQLEANADTSVEEESFGPQPISRLEQCGINANDVKKLEEAGFHTVEAVAYAPKKELINIKGISEAKADKILAEAAKLVPMGFTTATEFHQRRSEIIQITTGSKELDKLLQGGIETGSITEMFGEFRTGKTQICHTLAVTCQLPIDRGGGEGKAMYIDTEGTFRPERLLAVAERYGLSGSDVLDNVAYARAFNTDHQTQLLYQASAMMVESRYALLIVDSATALYRTDYSGRGELSARQMHLARFLRMLLRLADEFGVAVVITNQVVAQVDGAAMFAADPKKPIGGNIIAHASTTRLYLRKGRGETRICKIYDSPCLPEAEAMFAINADGVGDAKD

> <PDB ID(s) of Target Chain>
1N0W,5JZC,5NP7,5NWL,8BQ2,8BR2,8BSC

> <UniProt (SwissProt) Recommended Name of Target Chain>
DNA repair protein RAD51 homolog 1

> <UniProt (SwissProt) Entry Name of Target Chain>
RAD51_HUMAN

> <UniProt (SwissProt) Primary ID of Target Chain>
Q06609

> <UniProt (SwissProt) Secondary ID(s) of Target Chain>
B0FXP0 B2R8T6 Q6FHX9 Q6ZNA8 Q9BV60

> <UniProt (SwissProt) Alternative ID(s) of Target Chain>


> <UniProt (TrEMBL) Submitted Name of Target Chain>


> <UniProt (TrEMBL) Entry Name of Target Chain>


> <UniProt (TrEMBL) Primary ID of Target Chain>


> <UniProt (TrEMBL) Secondary ID(s) of Target Chain>


> <UniProt (TrEMBL) Alternative ID(s) of Target Chain>


$$$$

  SciTegic12211613302D

 20 23  0  0  0  0            999 V2000
    0.6426    0.8996    0.0000 N   0  0
    1.9460    0.1469    0.0000 C   0  0
    1.9460   -1.3585    0.0000 C   0  0
    0.6426   -2.0562    0.0000 N   0  0
   -0.6609   -1.3585    0.0000 C   0  0
   -1.9460   -2.0562    0.0000 C   0  0
   -3.2678   -1.3585    0.0000 C   0  0
   -3.2678    0.1469    0.0000 C   0  0
   -1.9460    0.8996    0.0000 C   0  0
   -0.6609    0.1469    0.0000 C   0  0
    3.0843    1.1566    0.0000 C   0  0
    2.4601    2.5335    0.0000 C   0  0
    0.9547    2.3683    0.0000 C   0  0
    3.2287   -3.6290    0.0000 C   0  0
    3.2335   -2.1297    0.0000 C   0  0
    4.5347   -1.3830    0.0000 C   0  0
    5.8314   -2.1371    0.0000 C   0  0
    5.8267   -3.6371    0.0000 C   0  0
    4.5254   -4.3830    0.0000 N   0  0
   -4.2955   -1.9782    0.0000 O   0  0
  1  2  1  0
  2  3  1  0
  3  4  2  0
  4  5  1  0
  5  6  1  0
  6  7  2  0
  7  8  1  0
  8  9  2  0
  9 10  1  0
  1 10  1  0
  5 10  2  0
 11 12  1  0
 12 13  2  0
  1 13  1  0
  2 11  2  0
 14 15  1  0
 15 16  2  0
 16 17  1  0
 17 18  2  0
 18 19  1  0
 14 19  2  0
  3 15  1  0
  7 20  1  0
M  END
> <From>
www.bindingDB.org

> <BindingDB Reactant_set_id>
50504736

> <Ligand InChI>
InChI=1S/C16H11N3O/c20-12-5-6-14-13(9-12)18-16(11-3-1-7-17-10-11)15-4-2-8-19(14)15/h1-10,20H

> <Ligand InChI Key>
ADKDYYZWEJOUDT-UHFFFAOYSA-N

> <BindingDB MonomerID>
50184375

> <BindingDB Ligand Name>
CHEMBL3823341

> <Target Name>
DNA repair protein RAD51 homolog 1

> <Target Source Organism According to Curator or DataSource>
Homo sapiens

> <Ki (nM)>


> <IC50 (nM)>
>100000

> <Kd (nM)>


> <EC50 (nM)>


> <kon (M-1-s-1)>


> <koff (s-1)>


> <pH>


> <Temp C>


> <Curation/DataSource>
ChEMBL

> <Article DOI>
10.1021/acs.jmedchem.5b01762

> <BindingDB Entry DOI>
10.7270/Q200041Q

> <PMID>
27049177

> <PubChem AID>


> <Patent Number>


> <Authors>
Lv, W; Budke, B; Pawlowski, M; Connell, PP; Kozikowski, AP

> <Date of publication>
5/26/2016

> <Date in BindingDB>
10/1/2017

> <Institution>
University of Illinois at Chicago

> <Link to Ligand in BindingDB>
http://www.bindingdb.org/bind/chemsearch/marvin/MolStructure.jsp?monomerid=50184375

> <Link to Ligand-Target Pair in BindingDB>
http://www.bindingdb.org/jsp/dbsearch/PrimarySearch_ki.jsp?energyterm=kJ/mole&tag=pol&polymerid=4676&target=DNA+repair+protein+RAD51+homolog+1&column=ki&startPg=0&Increment=50&submit=Search

> <Link to Ligand-Target Pair in BindingDB>
http://www.bindingdb.org/jsp/dbsearch/PrimarySearch_ki.jsp?energyterm=kJ/mole&tag=r21&monomerid=50184375&enzyme=DNA+repair+protein+RAD51+homolog+1&column=ki&startPg=0&Increment=50&submit=Search

> <Ligand HET ID in PDB>


> <PDB ID(s) for Ligand-Target Complex>


> <PubChem CID of Ligand>
127049243

> <PubChem SID of Ligand>
346550373

> <ChEBI ID of Ligand>


> <ChEMBL ID of Ligand>
CHEMBL3823341

> <DrugBank ID of Ligand>


> <IUPHAR_GRAC ID of Ligand>


> <KEGG ID of Ligand>


> <ZINC ID of Ligand>


> <Number of Protein Chains in Target (bigger than 1 implies a multichain complex)>
1

> <BindingDB Target Chain Sequence>
MAMQMQLEANADTSVEEESFGPQPISRLEQCGINANDVKKLEEAGFHTVEAVAYAPKKELINIKGISEAKADKILAEAAKLVPMGFTTATEFHQRRSEIIQITTGSKELDKLLQGGIETGSITEMFGEFRTGKTQICHTLAVTCQLPIDRGGGEGKAMYIDTEGTFRPERLLAVAERYGLSGSDVLDNVAYARAFNTDHQTQLLYQASAMMVESRYALLIVDSATALYRTDYSGRGELSARQMHLARFLRMLLRLADEFGVAVVITNQVVAQVDGAAMFAADPKKPIGGNIIAHASTTRLYLRKGRGETRICKIYDSPCLPEAEAMFAINADGVGDAKD

> <PDB ID(s) of Target Chain>
1N0W,5JZC,5NP7,5NWL,8BQ2,8BR2,8BSC

> <UniProt (SwissProt) Recommended Name of Target Chain>
DNA repair protein RAD51 homolog 1

> <UniProt (SwissProt) Entry Name of Target Chain>
RAD51_HUMAN

> <UniProt (SwissProt) Primary ID of Target Chain>
Q06609

> <UniProt (SwissProt) Secondary ID(s) of Target Chain>
B0FXP0 B2R8T6 Q6FHX9 Q6ZNA8 Q9BV60

> <UniProt (SwissProt) Alternative ID(s) of Target Chain>


> <UniProt (TrEMBL) Submitted Name of Target Chain>


> <UniProt (TrEMBL) Entry Name of Target Chain>


> <UniProt (TrEMBL) Primary ID of Target Chain>


> <UniProt (TrEMBL) Secondary ID(s) of Target Chain>


> <UniProt (TrEMBL) Alternative ID(s) of Target Chain>


$$$$

  SciTegic11261411082D

 24 27  0  0  0  0            999 V2000
   -2.2533    0.4504    0.0000 O   0  0
    1.0451    0.5534    0.0000 N   0  0
    0.2651   -0.9006    0.0000 N   0  0
    2.8281   -3.6798    0.0000 N   0  0
    1.4797   -0.1478    0.0000 C   0  0
    0.2205    0.5277    0.0000 C   0  0
    1.0897   -0.8748    0.0000 C   0  0
   -0.1695   -0.1993    0.0000 C   0  0
    1.5243   -1.5760    0.0000 C   0  0
    1.5777    1.1835    0.0000 C   0  0
    2.2809    0.0489    0.0000 C   0  0
   -0.2141    1.2289    0.0000 C   0  0
   -0.9941   -0.2251    0.0000 C   0  0
    2.3415    0.8716    0.0000 C   0  0
   -1.4287    0.4762    0.0000 C   0  0
   -1.0387    1.2032    0.0000 C   0  0
    2.3489   -1.5503    0.0000 C   0  0
    1.1343   -2.3030    0.0000 C   0  0
    2.3935   -2.9785    0.0000 C   0  0
    2.7835   -2.2515    0.0000 C   0  0
    1.5689   -3.0043    0.0000 C   0  0
   -2.6879    1.1516    0.0000 C   0  0
    3.6527   -3.6540    0.0000 C   0  0
    2.4382   -4.4068    0.0000 C   0  0
  1 15  1  0
  1 22  1  0
  2  5  1  0
  2  6  1  0
  2 10  1  0
  3  7  1  0
  3  8  1  0
  4 19  1  0
  4 23  1  0
  4 24  1  0
  5  7  1  0
  5 11  2  0
  6  8  1  0
  6 12  2  0
  7  9  1  0
  8 13  2  0
  9 17  2  0
  9 18  1  0
 10 14  2  0
 11 14  1  0
 12 16  1  0
 13 15  1  0
 15 16  2  0
 17 20  1  0
 18 21  2  0
 19 20  2  0
 19 21  1  0
M  END
> <From>
www.bindingDB.org

> <BindingDB Reactant_set_id>
50504737

> <Ligand InChI>
InChI=1S/C20H21N3O/c1-22(2)15-8-6-14(7-9-15)20-19-5-4-12-23(19)18-11-10-16(24-3)13-17(18)21-20/h4-13,20-21H,1-3H3

> <Ligand InChI Key>
KUFHEUJHSAJDFW-UHFFFAOYSA-N

> <BindingDB MonomerID>
50184397

> <BindingDB Ligand Name>
CHEMBL1547184

> <Target Name>
DNA repair protein RAD51 homolog 1

> <Target Source Organism According to Curator or DataSource>
Homo sapiens

> <Ki (nM)>


> <IC50 (nM)>
 13100

> <Kd (nM)>


> <EC50 (nM)>


> <kon (M-1-s-1)>


> <koff (s-1)>


> <pH>


> <Temp C>


> <Curation/DataSource>
ChEMBL

> <Article DOI>
10.1021/acs.jmedchem.5b01762

> <BindingDB Entry DOI>
10.7270/Q200041Q

> <PMID>
27049177

> <PubChem AID>


> <Patent Number>


> <Authors>
Lv, W; Budke, B; Pawlowski, M; Connell, PP; Kozikowski, AP

> <Date of publication>
5/26/2016

> <Date in BindingDB>
10/1/2017

> <Institution>
University of Illinois at Chicago

> <Link to Ligand in BindingDB>
http://www.bindingdb.org/bind/chemsearch/marvin/MolStructure.jsp?monomerid=50184397

> <Link to Ligand-Target Pair in BindingDB>
http://www.bindingdb.org/jsp/dbsearch/PrimarySearch_ki.jsp?energyterm=kJ/mole&tag=pol&polymerid=4676&target=DNA+repair+protein+RAD51+homolog+1&column=ki&startPg=0&Increment=50&submit=Search

> <Link to Ligand-Target Pair in BindingDB>
http://www.bindingdb.org/jsp/dbsearch/PrimarySearch_ki.jsp?energyterm=kJ/mole&tag=r21&monomerid=50184397&enzyme=DNA+repair+protein+RAD51+homolog+1&column=ki&startPg=0&Increment=50&submit=Search

> <Ligand HET ID in PDB>


> <PDB ID(s) for Ligand-Target Complex>


> <PubChem CID of Ligand>
2814482

> <PubChem SID of Ligand>
104068771

> <ChEBI ID of Ligand>


> <ChEMBL ID of Ligand>
CHEMBL1547184

> <DrugBank ID of Ligand>


> <IUPHAR_GRAC ID of Ligand>


> <KEGG ID of Ligand>


> <ZINC ID of Ligand>
ZINC28569498

> <Number of Protein Chains in Target (bigger than 1 implies a multichain complex)>
1

> <BindingDB Target Chain Sequence>
MAMQMQLEANADTSVEEESFGPQPISRLEQCGINANDVKKLEEAGFHTVEAVAYAPKKELINIKGISEAKADKILAEAAKLVPMGFTTATEFHQRRSEIIQITTGSKELDKLLQGGIETGSITEMFGEFRTGKTQICHTLAVTCQLPIDRGGGEGKAMYIDTEGTFRPERLLAVAERYGLSGSDVLDNVAYARAFNTDHQTQLLYQASAMMVESRYALLIVDSATALYRTDYSGRGELSARQMHLARFLRMLLRLADEFGVAVVITNQVVAQVDGAAMFAADPKKPIGGNIIAHASTTRLYLRKGRGETRICKIYDSPCLPEAEAMFAINADGVGDAKD

> <PDB ID(s) of Target Chain>
1N0W,5JZC,5NP7,5NWL,8BQ2,8BR2,8BSC

> <UniProt (SwissProt) Recommended Name of Target Chain>
DNA repair protein RAD51 homolog 1

> <UniProt (SwissProt) Entry Name of Target Chain>
RAD51_HUMAN

> <UniProt (SwissProt) Primary ID of Target Chain>
Q06609

> <UniProt (SwissProt) Secondary ID(s) of Target Chain>
B0FXP0 B2R8T6 Q6FHX9 Q6ZNA8 Q9BV60

> <UniProt (SwissProt) Alternative ID(s) of Target Chain>


> <UniProt (TrEMBL) Submitted Name of Target Chain>


> <UniProt (TrEMBL) Entry Name of Target Chain>


> <UniProt (TrEMBL) Primary ID of Target Chain>


> <UniProt (TrEMBL) Secondary ID(s) of Target Chain>


> <UniProt (TrEMBL) Alternative ID(s) of Target Chain>


$$$$

  SciTegic11261411082D

 24 27  0  0  0  0            999 V2000
   -2.2533    0.4504    0.0000 O   0  0
    1.0451    0.5534    0.0000 N   0  0
    0.2651   -0.9006    0.0000 N   0  0
    2.8281   -3.6798    0.0000 N   0  0
    1.4797   -0.1478    0.0000 C   0  0
    0.2205    0.5277    0.0000 C   0  0
    1.0897   -0.8748    0.0000 C   0  0
   -0.1695   -0.1993    0.0000 C   0  0
    1.5243   -1.5760    0.0000 C   0  0
    1.5777    1.1835    0.0000 C   0  0
    2.2809    0.0489    0.0000 C   0  0
   -0.2141    1.2289    0.0000 C   0  0
   -0.9941   -0.2251    0.0000 C   0  0
    2.3415    0.8716    0.0000 C   0  0
   -1.4287    0.4762    0.0000 C   0  0
   -1.0387    1.2032    0.0000 C   0  0
    2.3489   -1.5503    0.0000 C   0  0
    1.1343   -2.3030    0.0000 C   0  0
    2.3935   -2.9785    0.0000 C   0  0
    2.7835   -2.2515    0.0000 C   0  0
    1.5689   -3.0043    0.0000 C   0  0
   -2.6879    1.1516    0.0000 C   0  0
    3.6527   -3.6540    0.0000 C   0  0
    2.4382   -4.4068    0.0000 C   0  0
  1 15  1  0
  1 22  1  0
  2  5  1  0
  2  6  1  0
  2 10  1  0
  3  7  1  0
  3  8  1  0
  4 19  1  0
  4 23  1  0
  4 24  1  0
  5  7  1  0
  5 11  2  0
  6  8  1  0
  6 12  2  0
  7  9  1  0
  8 13  2  0
  9 17  2  0
  9 18  1  0
 10 14  2  0
 11 14  1  0
 12 16  1  0
 13 15  1  0
 15 16  2  0
 17 20  1  0
 18 21  2  0
 19 20  2  0
 19 21  1  0
M  END
> <From>
www.bindingDB.org

> <BindingDB Reactant_set_id>
50504738

> <Ligand InChI>
InChI=1S/C20H21N3O/c1-22(2)15-8-6-14(7-9-15)20-19-5-4-12-23(19)18-11-10-16(24-3)13-17(18)21-20/h4-13,20-21H,1-3H3

> <Ligand InChI Key>
KUFHEUJHSAJDFW-UHFFFAOYSA-N

> <BindingDB MonomerID>
50184397

> <BindingDB Ligand Name>
CHEMBL1547184

> <Target Name>
DNA repair protein RAD51 homolog 1

> <Target Source Organism According to Curator or DataSource>
Homo sapiens

> <Ki (nM)>


> <IC50 (nM)>
 21300

> <Kd (nM)>


> <EC50 (nM)>


> <kon (M-1-s-1)>


> <koff (s-1)>


> <pH>


> <Temp C>


> <Curation/DataSource>
ChEMBL

> <Article DOI>
10.1021/acs.jmedchem.5b01762

> <BindingDB Entry DOI>
10.7270/Q200041Q

> <PMID>
27049177

> <PubChem AID>


> <Patent Number>


> <Authors>
Lv, W; Budke, B; Pawlowski, M; Connell, PP; Kozikowski, AP

> <Date of publication>
5/26/2016

> <Date in BindingDB>
10/1/2017

> <Institution>
University of Illinois at Chicago

> <Link to Ligand in BindingDB>
http://www.bindingdb.org/bind/chemsearch/marvin/MolStructure.jsp?monomerid=50184397

> <Link to Ligand-Target Pair in BindingDB>
http://www.bindingdb.org/jsp/dbsearch/PrimarySearch_ki.jsp?energyterm=kJ/mole&tag=pol&polymerid=4676&target=DNA+repair+protein+RAD51+homolog+1&column=ki&startPg=0&Increment=50&submit=Search

> <Link to Ligand-Target Pair in BindingDB>
http://www.bindingdb.org/jsp/dbsearch/PrimarySearch_ki.jsp?energyterm=kJ/mole&tag=r21&monomerid=50184397&enzyme=DNA+repair+protein+RAD51+homolog+1&column=ki&startPg=0&Increment=50&submit=Search

> <Ligand HET ID in PDB>


> <PDB ID(s) for Ligand-Target Complex>


> <PubChem CID of Ligand>
2814482

> <PubChem SID of Ligand>
104068771

> <ChEBI ID of Ligand>


> <ChEMBL ID of Ligand>
CHEMBL1547184

> <DrugBank ID of Ligand>


> <IUPHAR_GRAC ID of Ligand>


> <KEGG ID of Ligand>


> <ZINC ID of Ligand>
ZINC28569498

> <Number of Protein Chains in Target (bigger than 1 implies a multichain complex)>
1

> <BindingDB Target Chain Sequence>
MAMQMQLEANADTSVEEESFGPQPISRLEQCGINANDVKKLEEAGFHTVEAVAYAPKKELINIKGISEAKADKILAEAAKLVPMGFTTATEFHQRRSEIIQITTGSKELDKLLQGGIETGSITEMFGEFRTGKTQICHTLAVTCQLPIDRGGGEGKAMYIDTEGTFRPERLLAVAERYGLSGSDVLDNVAYARAFNTDHQTQLLYQASAMMVESRYALLIVDSATALYRTDYSGRGELSARQMHLARFLRMLLRLADEFGVAVVITNQVVAQVDGAAMFAADPKKPIGGNIIAHASTTRLYLRKGRGETRICKIYDSPCLPEAEAMFAINADGVGDAKD

> <PDB ID(s) of Target Chain>
1N0W,5JZC,5NP7,5NWL,8BQ2,8BR2,8BSC

> <UniProt (SwissProt) Recommended Name of Target Chain>
DNA repair protein RAD51 homolog 1

> <UniProt (SwissProt) Entry Name of Target Chain>
RAD51_HUMAN

> <UniProt (SwissProt) Primary ID of Target Chain>
Q06609

> <UniProt (SwissProt) Secondary ID(s) of Target Chain>
B0FXP0 B2R8T6 Q6FHX9 Q6ZNA8 Q9BV60

> <UniProt (SwissProt) Alternative ID(s) of Target Chain>


> <UniProt (TrEMBL) Submitted Name of Target Chain>


> <UniProt (TrEMBL) Entry Name of Target Chain>


> <UniProt (TrEMBL) Primary ID of Target Chain>


> <UniProt (TrEMBL) Secondary ID(s) of Target Chain>


> <UniProt (TrEMBL) Alternative ID(s) of Target Chain>


$$$$

  SciTegic11261411082D

 24 27  0  0  0  0            999 V2000
   -2.2533    0.4504    0.0000 O   0  0
    1.0451    0.5534    0.0000 N   0  0
    0.2651   -0.9006    0.0000 N   0  0
    2.8281   -3.6798    0.0000 N   0  0
    1.4797   -0.1478    0.0000 C   0  0
    0.2205    0.5277    0.0000 C   0  0
    1.0897   -0.8748    0.0000 C   0  0
   -0.1695   -0.1993    0.0000 C   0  0
    1.5243   -1.5760    0.0000 C   0  0
    1.5777    1.1835    0.0000 C   0  0
    2.2809    0.0489    0.0000 C   0  0
   -0.2141    1.2289    0.0000 C   0  0
   -0.9941   -0.2251    0.0000 C   0  0
    2.3415    0.8716    0.0000 C   0  0
   -1.4287    0.4762    0.0000 C   0  0
   -1.0387    1.2032    0.0000 C   0  0
    2.3489   -1.5503    0.0000 C   0  0
    1.1343   -2.3030    0.0000 C   0  0
    2.3935   -2.9785    0.0000 C   0  0
    2.7835   -2.2515    0.0000 C   0  0
    1.5689   -3.0043    0.0000 C   0  0
   -2.6879    1.1516    0.0000 C   0  0
    3.6527   -3.6540    0.0000 C   0  0
    2.4382   -4.4068    0.0000 C   0  0
  1 15  1  0
  1 22  1  0
  2  5  1  0
  2  6  1  0
  2 10  1  0
  3  7  1  0
  3  8  1  0
  4 19  1  0
  4 23  1  0
  4 24  1  0
  5  7  1  0
  5 11  2  0
  6  8  1  0
  6 12  2  0
  7  9  1  0
  8 13  2  0
  9 17  2  0
  9 18  1  0
 10 14  2  0
 11 14  1  0
 12 16  1  0
 13 15  1  0
 15 16  2  0
 17 20  1  0
 18 21  2  0
 19 20  2  0
 19 21  1  0
M  END
> <From>
www.bindingDB.org

> <BindingDB Reactant_set_id>
50504739

> <Ligand InChI>
InChI=1S/C20H21N3O/c1-22(2)15-8-6-14(7-9-15)20-19-5-4-12-23(19)18-11-10-16(24-3)13-17(18)21-20/h4-13,20-21H,1-3H3

> <Ligand InChI Key>
KUFHEUJHSAJDFW-UHFFFAOYSA-N

> <BindingDB MonomerID>
50184397

> <BindingDB Ligand Name>
CHEMBL1547184

> <Target Name>
DNA repair protein RAD51 homolog 1

> <Target Source Organism According to Curator or DataSource>
Homo sapiens

> <Ki (nM)>


> <IC50 (nM)>
>100000

> <Kd (nM)>


> <EC50 (nM)>


> <kon (M-1-s-1)>


> <koff (s-1)>


> <pH>


> <Temp C>


> <Curation/DataSource>
ChEMBL

> <Article DOI>
10.1021/acs.jmedchem.5b01762

> <BindingDB Entry DOI>
10.7270/Q200041Q

> <PMID>
27049177

> <PubChem AID>


> <Patent Number>


> <Authors>
Lv, W; Budke, B; Pawlowski, M; Connell, PP; Kozikowski, AP

> <Date of publication>
5/26/2016

> <Date in BindingDB>
10/1/2017

> <Institution>
University of Illinois at Chicago

> <Link to Ligand in BindingDB>
http://www.bindingdb.org/bind/chemsearch/marvin/MolStructure.jsp?monomerid=50184397

> <Link to Ligand-Target Pair in BindingDB>
http://www.bindingdb.org/jsp/dbsearch/PrimarySearch_ki.jsp?energyterm=kJ/mole&tag=pol&polymerid=4676&target=DNA+repair+protein+RAD51+homolog+1&column=ki&startPg=0&Increment=50&submit=Search

> <Link to Ligand-Target Pair in BindingDB>
http://www.bindingdb.org/jsp/dbsearch/PrimarySearch_ki.jsp?energyterm=kJ/mole&tag=r21&monomerid=50184397&enzyme=DNA+repair+protein+RAD51+homolog+1&column=ki&startPg=0&Increment=50&submit=Search

> <Ligand HET ID in PDB>


> <PDB ID(s) for Ligand-Target Complex>


> <PubChem CID of Ligand>
2814482

> <PubChem SID of Ligand>
104068771

> <ChEBI ID of Ligand>


> <ChEMBL ID of Ligand>
CHEMBL1547184

> <DrugBank ID of Ligand>


> <IUPHAR_GRAC ID of Ligand>


> <KEGG ID of Ligand>


> <ZINC ID of Ligand>
ZINC28569498

> <Number of Protein Chains in Target (bigger than 1 implies a multichain complex)>
1

> <BindingDB Target Chain Sequence>
MAMQMQLEANADTSVEEESFGPQPISRLEQCGINANDVKKLEEAGFHTVEAVAYAPKKELINIKGISEAKADKILAEAAKLVPMGFTTATEFHQRRSEIIQITTGSKELDKLLQGGIETGSITEMFGEFRTGKTQICHTLAVTCQLPIDRGGGEGKAMYIDTEGTFRPERLLAVAERYGLSGSDVLDNVAYARAFNTDHQTQLLYQASAMMVESRYALLIVDSATALYRTDYSGRGELSARQMHLARFLRMLLRLADEFGVAVVITNQVVAQVDGAAMFAADPKKPIGGNIIAHASTTRLYLRKGRGETRICKIYDSPCLPEAEAMFAINADGVGDAKD

> <PDB ID(s) of Target Chain>
1N0W,5JZC,5NP7,5NWL,8BQ2,8BR2,8BSC

> <UniProt (SwissProt) Recommended Name of Target Chain>
DNA repair protein RAD51 homolog 1

> <UniProt (SwissProt) Entry Name of Target Chain>
RAD51_HUMAN

> <UniProt (SwissProt) Primary ID of Target Chain>
Q06609

> <UniProt (SwissProt) Secondary ID(s) of Target Chain>
B0FXP0 B2R8T6 Q6FHX9 Q6ZNA8 Q9BV60

> <UniProt (SwissProt) Alternative ID(s) of Target Chain>


> <UniProt (TrEMBL) Submitted Name of Target Chain>


> <UniProt (TrEMBL) Entry Name of Target Chain>


> <UniProt (TrEMBL) Primary ID of Target Chain>


> <UniProt (TrEMBL) Secondary ID(s) of Target Chain>


> <UniProt (TrEMBL) Alternative ID(s) of Target Chain>


$$$$

  SciTegic12211613292D

 24 27  0  0  0  0            999 V2000
    7.1257   -4.3889    0.0000 N   0  0
    5.8267   -3.6371    0.0000 C   0  0
    4.5254   -4.3830    0.0000 C   0  0
    3.2287   -3.6290    0.0000 C   0  0
    3.2335   -2.1297    0.0000 C   0  0
    4.5347   -1.3830    0.0000 C   0  0
    5.8314   -2.1371    0.0000 C   0  0
    8.1660   -3.7907    0.0000 C   0  0
    7.1240   -5.5889    0.0000 C   0  0
    0.6426    0.8996    0.0000 N   0  0
    1.9460    0.1469    0.0000 C   0  0
    1.9460   -1.3585    0.0000 C   0  0
    0.6426   -2.0562    0.0000 N   0  0
   -0.6609   -1.3585    0.0000 C   0  0
   -1.9460   -2.0562    0.0000 C   0  0
   -3.2678   -1.3585    0.0000 C   0  0
   -3.2678    0.1469    0.0000 C   0  0
   -1.9460    0.8996    0.0000 C   0  0
   -0.6609    0.1469    0.0000 C   0  0
    3.0843    1.1566    0.0000 C   0  0
    2.4601    2.5335    0.0000 C   0  0
    0.9547    2.3683    0.0000 C   0  0
   -4.5529   -2.1330    0.0000 O   0  0
   -5.6036   -1.5533    0.0000 C   0  0
  1  2  1  0
  2  3  1  0
  3  4  2  0
  4  5  1  0
  5  6  2  0
  6  7  1  0
  2  7  2  0
  1  8  1  0
  1  9  1  0
 10 11  1  0
 11 12  1  0
 12 13  2  0
 13 14  1  0
 14 15  1  0
 15 16  2  0
 16 17  1  0
 17 18  2  0
 18 19  1  0
 10 19  1  0
 14 19  2  0
 20 21  1  0
 21 22  2  0
 10 22  1  0
 11 20  2  0
 23 24  1  0
 16 23  1  0
  5 12  1  0
M  END
> <From>
www.bindingDB.org

> <BindingDB Reactant_set_id>
50504740

> <Ligand InChI>
InChI=1S/C20H19N3O/c1-22(2)15-8-6-14(7-9-15)20-19-5-4-12-23(19)18-11-10-16(24-3)13-17(18)21-20/h4-13H,1-3H3

> <Ligand InChI Key>
XJEFYPYKUYMHFJ-UHFFFAOYSA-N

> <BindingDB MonomerID>
50184408

> <BindingDB Ligand Name>
CHEMBL3824267

> <Target Name>
DNA repair protein RAD51 homolog 1

> <Target Source Organism According to Curator or DataSource>
Homo sapiens

> <Ki (nM)>


> <IC50 (nM)>
 13000

> <Kd (nM)>


> <EC50 (nM)>


> <kon (M-1-s-1)>


> <koff (s-1)>


> <pH>


> <Temp C>


> <Curation/DataSource>
ChEMBL

> <Article DOI>
10.1021/acs.jmedchem.5b01762

> <BindingDB Entry DOI>
10.7270/Q200041Q

> <PMID>
27049177

> <PubChem AID>


> <Patent Number>


> <Authors>
Lv, W; Budke, B; Pawlowski, M; Connell, PP; Kozikowski, AP

> <Date of publication>
5/26/2016

> <Date in BindingDB>
10/1/2017

> <Institution>
University of Illinois at Chicago

> <Link to Ligand in BindingDB>
http://www.bindingdb.org/bind/chemsearch/marvin/MolStructure.jsp?monomerid=50184408

> <Link to Ligand-Target Pair in BindingDB>
http://www.bindingdb.org/jsp/dbsearch/PrimarySearch_ki.jsp?energyterm=kJ/mole&tag=pol&polymerid=4676&target=DNA+repair+protein+RAD51+homolog+1&column=ki&startPg=0&Increment=50&submit=Search

> <Link to Ligand-Target Pair in BindingDB>
http://www.bindingdb.org/jsp/dbsearch/PrimarySearch_ki.jsp?energyterm=kJ/mole&tag=r21&monomerid=50184408&enzyme=DNA+repair+protein+RAD51+homolog+1&column=ki&startPg=0&Increment=50&submit=Search

> <Ligand HET ID in PDB>


> <PDB ID(s) for Ligand-Target Complex>


> <PubChem CID of Ligand>
127052549

> <PubChem SID of Ligand>
346550379

> <ChEBI ID of Ligand>


> <ChEMBL ID of Ligand>
CHEMBL3824267

> <DrugBank ID of Ligand>


> <IUPHAR_GRAC ID of Ligand>


> <KEGG ID of Ligand>


> <ZINC ID of Ligand>


> <Number of Protein Chains in Target (bigger than 1 implies a multichain complex)>
1

> <BindingDB Target Chain Sequence>
MAMQMQLEANADTSVEEESFGPQPISRLEQCGINANDVKKLEEAGFHTVEAVAYAPKKELINIKGISEAKADKILAEAAKLVPMGFTTATEFHQRRSEIIQITTGSKELDKLLQGGIETGSITEMFGEFRTGKTQICHTLAVTCQLPIDRGGGEGKAMYIDTEGTFRPERLLAVAERYGLSGSDVLDNVAYARAFNTDHQTQLLYQASAMMVESRYALLIVDSATALYRTDYSGRGELSARQMHLARFLRMLLRLADEFGVAVVITNQVVAQVDGAAMFAADPKKPIGGNIIAHASTTRLYLRKGRGETRICKIYDSPCLPEAEAMFAINADGVGDAKD

> <PDB ID(s) of Target Chain>
1N0W,5JZC,5NP7,5NWL,8BQ2,8BR2,8BSC

> <UniProt (SwissProt) Recommended Name of Target Chain>
DNA repair protein RAD51 homolog 1

> <UniProt (SwissProt) Entry Name of Target Chain>
RAD51_HUMAN

> <UniProt (SwissProt) Primary ID of Target Chain>
Q06609

> <UniProt (SwissProt) Secondary ID(s) of Target Chain>
B0FXP0 B2R8T6 Q6FHX9 Q6ZNA8 Q9BV60

> <UniProt (SwissProt) Alternative ID(s) of Target Chain>


> <UniProt (TrEMBL) Submitted Name of Target Chain>


> <UniProt (TrEMBL) Entry Name of Target Chain>


> <UniProt (TrEMBL) Primary ID of Target Chain>


> <UniProt (TrEMBL) Secondary ID(s) of Target Chain>


> <UniProt (TrEMBL) Alternative ID(s) of Target Chain>


$$$$

  SciTegic12211613292D

 22 25  0  0  0  0            999 V2000
    7.1257   -4.3889    0.0000 N   0  0
    5.8267   -3.6371    0.0000 C   0  0
    4.5254   -4.3830    0.0000 C   0  0
    3.2287   -3.6290    0.0000 C   0  0
    3.2335   -2.1297    0.0000 C   0  0
    4.5347   -1.3830    0.0000 C   0  0
    5.8314   -2.1371    0.0000 C   0  0
    8.1660   -3.7907    0.0000 C   0  0
    7.1240   -5.5889    0.0000 C   0  0
    0.6426    0.8996    0.0000 N   0  0
    1.9460    0.1469    0.0000 C   0  0
    1.9460   -1.3585    0.0000 C   0  0
    0.6426   -2.0562    0.0000 N   0  0
   -0.6609   -1.3585    0.0000 C   0  0
   -1.9460   -2.0562    0.0000 C   0  0
   -3.2678   -1.3585    0.0000 C   0  0
   -3.2678    0.1469    0.0000 C   0  0
   -1.9460    0.8996    0.0000 C   0  0
   -0.6609    0.1469    0.0000 C   0  0
    3.0843    1.1566    0.0000 C   0  0
    2.4601    2.5335    0.0000 C   0  0
    0.9547    2.3683    0.0000 C   0  0
  1  2  1  0
  2  3  1  0
  3  4  2  0
  4  5  1  0
  5  6  2  0
  6  7  1  0
  2  7  2  0
  1  8  1  0
  1  9  1  0
 10 11  1  0
 11 12  1  0
 12 13  2  0
 13 14  1  0
 14 15  1  0
 15 16  2  0
 16 17  1  0
 17 18  2  0
 18 19  1  0
 10 19  1  0
 14 19  2  0
 20 21  1  0
 21 22  2  0
 10 22  1  0
 11 20  2  0
  5 12  1  0
M  END
> <From>
www.bindingDB.org

> <BindingDB Reactant_set_id>
50504741

> <Ligand InChI>
InChI=1S/C19H17N3/c1-21(2)15-11-9-14(10-12-15)19-18-8-5-13-22(18)17-7-4-3-6-16(17)20-19/h3-13H,1-2H3

> <Ligand InChI Key>
CCIMXNBOFXVOCC-UHFFFAOYSA-N

> <BindingDB MonomerID>
50184409

> <BindingDB Ligand Name>
CHEMBL3823875

> <Target Name>
DNA repair protein RAD51 homolog 1

> <Target Source Organism According to Curator or DataSource>
Homo sapiens

> <Ki (nM)>


> <IC50 (nM)>
 27600

> <Kd (nM)>


> <EC50 (nM)>


> <kon (M-1-s-1)>


> <koff (s-1)>


> <pH>


> <Temp C>


> <Curation/DataSource>
ChEMBL

> <Article DOI>
10.1021/acs.jmedchem.5b01762

> <BindingDB Entry DOI>
10.7270/Q200041Q

> <PMID>
27049177

> <PubChem AID>


> <Patent Number>


> <Authors>
Lv, W; Budke, B; Pawlowski, M; Connell, PP; Kozikowski, AP

> <Date of publication>
5/26/2016

> <Date in BindingDB>
10/1/2017

> <Institution>
University of Illinois at Chicago

> <Link to Ligand in BindingDB>
http://www.bindingdb.org/bind/chemsearch/marvin/MolStructure.jsp?monomerid=50184409

> <Link to Ligand-Target Pair in BindingDB>
http://www.bindingdb.org/jsp/dbsearch/PrimarySearch_ki.jsp?energyterm=kJ/mole&tag=pol&polymerid=4676&target=DNA+repair+protein+RAD51+homolog+1&column=ki&startPg=0&Increment=50&submit=Search

> <Link to Ligand-Target Pair in BindingDB>
http://www.bindingdb.org/jsp/dbsearch/PrimarySearch_ki.jsp?energyterm=kJ/mole&tag=r21&monomerid=50184409&enzyme=DNA+repair+protein+RAD51+homolog+1&column=ki&startPg=0&Increment=50&submit=Search

> <Ligand HET ID in PDB>


> <PDB ID(s) for Ligand-Target Complex>


> <PubChem CID of Ligand>
127048228

> <PubChem SID of Ligand>
346550380

> <ChEBI ID of Ligand>


> <ChEMBL ID of Ligand>
CHEMBL3823875

> <DrugBank ID of Ligand>


> <IUPHAR_GRAC ID of Ligand>


> <KEGG ID of Ligand>


> <ZINC ID of Ligand>


> <Number of Protein Chains in Target (bigger than 1 implies a multichain complex)>
1

> <BindingDB Target Chain Sequence>
MAMQMQLEANADTSVEEESFGPQPISRLEQCGINANDVKKLEEAGFHTVEAVAYAPKKELINIKGISEAKADKILAEAAKLVPMGFTTATEFHQRRSEIIQITTGSKELDKLLQGGIETGSITEMFGEFRTGKTQICHTLAVTCQLPIDRGGGEGKAMYIDTEGTFRPERLLAVAERYGLSGSDVLDNVAYARAFNTDHQTQLLYQASAMMVESRYALLIVDSATALYRTDYSGRGELSARQMHLARFLRMLLRLADEFGVAVVITNQVVAQVDGAAMFAADPKKPIGGNIIAHASTTRLYLRKGRGETRICKIYDSPCLPEAEAMFAINADGVGDAKD

> <PDB ID(s) of Target Chain>
1N0W,5JZC,5NP7,5NWL,8BQ2,8BR2,8BSC

> <UniProt (SwissProt) Recommended Name of Target Chain>
DNA repair protein RAD51 homolog 1

> <UniProt (SwissProt) Entry Name of Target Chain>
RAD51_HUMAN

> <UniProt (SwissProt) Primary ID of Target Chain>
Q06609

> <UniProt (SwissProt) Secondary ID(s) of Target Chain>
B0FXP0 B2R8T6 Q6FHX9 Q6ZNA8 Q9BV60

> <UniProt (SwissProt) Alternative ID(s) of Target Chain>


> <UniProt (TrEMBL) Submitted Name of Target Chain>


> <UniProt (TrEMBL) Entry Name of Target Chain>


> <UniProt (TrEMBL) Primary ID of Target Chain>


> <UniProt (TrEMBL) Secondary ID(s) of Target Chain>


> <UniProt (TrEMBL) Alternative ID(s) of Target Chain>


$$$$

  SciTegic12211613292D

 22 25  0  0  0  0            999 V2000
    5.8267   -3.6371    0.0000 C   0  0
    4.5254   -4.3830    0.0000 C   0  0
    3.2287   -3.6290    0.0000 C   0  0
    3.2335   -2.1297    0.0000 C   0  0
    4.5347   -1.3830    0.0000 C   0  0
    5.8314   -2.1371    0.0000 C   0  0
    0.6426    0.8996    0.0000 N   0  0
    1.9460    0.1469    0.0000 C   0  0
    1.9460   -1.3585    0.0000 C   0  0
    0.6426   -2.0562    0.0000 N   0  0
   -0.6609   -1.3585    0.0000 C   0  0
   -1.9460   -2.0562    0.0000 C   0  0
   -3.2678   -1.3585    0.0000 C   0  0
   -3.2678    0.1469    0.0000 C   0  0
   -1.9460    0.8996    0.0000 C   0  0
   -0.6609    0.1469    0.0000 C   0  0
    3.0843    1.1566    0.0000 C   0  0
    2.4601    2.5335    0.0000 C   0  0
    0.9547    2.3683    0.0000 C   0  0
    7.1351   -1.3934    0.0000 N   0  3
    8.1716   -1.9982    0.0000 O   0  0
    7.1409   -0.1934    0.0000 O   0  5
  1  2  1  0
  2  3  2  0
  3  4  1  0
  4  5  2  0
  5  6  1  0
  1  6  2  0
  7  8  1  0
  8  9  1  0
  9 10  2  0
 10 11  1  0
 11 12  1  0
 12 13  2  0
 13 14  1  0
 14 15  2  0
 15 16  1  0
  7 16  1  0
 11 16  2  0
 17 18  1  0
 18 19  2  0
  7 19  1  0
  8 17  2  0
  4  9  1  0
 20 21  2  0
 20 22  1  0
  6 20  1  0
M  CHG  2  20   1  22  -1
M  END
> <From>
www.bindingDB.org

> <BindingDB Reactant_set_id>
50504742

> <Ligand InChI>
InChI=1S/C17H11N3O2/c21-20(22)13-6-3-5-12(11-13)17-16-9-4-10-19(16)15-8-2-1-7-14(15)18-17/h1-11H

> <Ligand InChI Key>
VONVAASQNGWAQZ-UHFFFAOYSA-N

> <BindingDB MonomerID>
50184406

> <BindingDB Ligand Name>
CHEMBL3823677

> <Target Name>
DNA repair protein RAD51 homolog 1

> <Target Source Organism According to Curator or DataSource>
Homo sapiens

> <Ki (nM)>


> <IC50 (nM)>
>100000

> <Kd (nM)>


> <EC50 (nM)>


> <kon (M-1-s-1)>


> <koff (s-1)>


> <pH>


> <Temp C>


> <Curation/DataSource>
ChEMBL

> <Article DOI>
10.1021/acs.jmedchem.5b01762

> <BindingDB Entry DOI>
10.7270/Q200041Q

> <PMID>
27049177

> <PubChem AID>


> <Patent Number>


> <Authors>
Lv, W; Budke, B; Pawlowski, M; Connell, PP; Kozikowski, AP

> <Date of publication>
5/26/2016

> <Date in BindingDB>
10/1/2017

> <Institution>
University of Illinois at Chicago

> <Link to Ligand in BindingDB>
http://www.bindingdb.org/bind/chemsearch/marvin/MolStructure.jsp?monomerid=50184406

> <Link to Ligand-Target Pair in BindingDB>
http://www.bindingdb.org/jsp/dbsearch/PrimarySearch_ki.jsp?energyterm=kJ/mole&tag=pol&polymerid=4676&target=DNA+repair+protein+RAD51+homolog+1&column=ki&startPg=0&Increment=50&submit=Search

> <Link to Ligand-Target Pair in BindingDB>
http://www.bindingdb.org/jsp/dbsearch/PrimarySearch_ki.jsp?energyterm=kJ/mole&tag=r21&monomerid=50184406&enzyme=DNA+repair+protein+RAD51+homolog+1&column=ki&startPg=0&Increment=50&submit=Search

> <Ligand HET ID in PDB>


> <PDB ID(s) for Ligand-Target Complex>


> <PubChem CID of Ligand>
127050093

> <PubChem SID of Ligand>
346550377

> <ChEBI ID of Ligand>


> <ChEMBL ID of Ligand>
CHEMBL3823677

> <DrugBank ID of Ligand>


> <IUPHAR_GRAC ID of Ligand>


> <KEGG ID of Ligand>


> <ZINC ID of Ligand>


> <Number of Protein Chains in Target (bigger than 1 implies a multichain complex)>
1

> <BindingDB Target Chain Sequence>
MAMQMQLEANADTSVEEESFGPQPISRLEQCGINANDVKKLEEAGFHTVEAVAYAPKKELINIKGISEAKADKILAEAAKLVPMGFTTATEFHQRRSEIIQITTGSKELDKLLQGGIETGSITEMFGEFRTGKTQICHTLAVTCQLPIDRGGGEGKAMYIDTEGTFRPERLLAVAERYGLSGSDVLDNVAYARAFNTDHQTQLLYQASAMMVESRYALLIVDSATALYRTDYSGRGELSARQMHLARFLRMLLRLADEFGVAVVITNQVVAQVDGAAMFAADPKKPIGGNIIAHASTTRLYLRKGRGETRICKIYDSPCLPEAEAMFAINADGVGDAKD

> <PDB ID(s) of Target Chain>
1N0W,5JZC,5NP7,5NWL,8BQ2,8BR2,8BSC

> <UniProt (SwissProt) Recommended Name of Target Chain>
DNA repair protein RAD51 homolog 1

> <UniProt (SwissProt) Entry Name of Target Chain>
RAD51_HUMAN

> <UniProt (SwissProt) Primary ID of Target Chain>
Q06609

> <UniProt (SwissProt) Secondary ID(s) of Target Chain>
B0FXP0 B2R8T6 Q6FHX9 Q6ZNA8 Q9BV60

> <UniProt (SwissProt) Alternative ID(s) of Target Chain>


> <UniProt (TrEMBL) Submitted Name of Target Chain>


> <UniProt (TrEMBL) Entry Name of Target Chain>


> <UniProt (TrEMBL) Primary ID of Target Chain>


> <UniProt (TrEMBL) Secondary ID(s) of Target Chain>


> <UniProt (TrEMBL) Alternative ID(s) of Target Chain>


$$$$

  SciTegic12211613292D

 20 23  0  0  0  0            999 V2000
    5.8267   -3.6371    0.0000 C   0  0
    4.5254   -4.3830    0.0000 C   0  0
    3.2287   -3.6290    0.0000 C   0  0
    3.2335   -2.1297    0.0000 C   0  0
    4.5347   -1.3830    0.0000 C   0  0
    5.8314   -2.1371    0.0000 C   0  0
    0.6426    0.8996    0.0000 N   0  0
    1.9460    0.1469    0.0000 C   0  0
    1.9460   -1.3585    0.0000 C   0  0
    0.6426   -2.0562    0.0000 N   0  0
   -0.6609   -1.3585    0.0000 C   0  0
   -1.9460   -2.0562    0.0000 C   0  0
   -3.2678   -1.3585    0.0000 C   0  0
   -3.2678    0.1469    0.0000 C   0  0
   -1.9460    0.8996    0.0000 C   0  0
   -0.6609    0.1469    0.0000 C   0  0
    3.0843    1.1566    0.0000 C   0  0
    2.4601    2.5335    0.0000 C   0  0
    0.9547    2.3683    0.0000 C   0  0
    6.8725   -1.5404    0.0000 N   0  0
  1  2  1  0
  2  3  2  0
  3  4  1  0
  4  5  2  0
  5  6  1  0
  1  6  2  0
  7  8  1  0
  8  9  1  0
  9 10  2  0
 10 11  1  0
 11 12  1  0
 12 13  2  0
 13 14  1  0
 14 15  2  0
 15 16  1  0
  7 16  1  0
 11 16  2  0
 17 18  1  0
 18 19  2  0
  7 19  1  0
  8 17  2  0
  4  9  1  0
  6 20  1  0
M  END
> <From>
www.bindingDB.org

> <BindingDB Reactant_set_id>
50504749

> <Ligand InChI>
InChI=1S/C17H13N3/c18-13-6-3-5-12(11-13)17-16-9-4-10-20(16)15-8-2-1-7-14(15)19-17/h1-11H,18H2

> <Ligand InChI Key>
WWIWNVKENUJKIC-UHFFFAOYSA-N

> <BindingDB MonomerID>
50184407

> <BindingDB Ligand Name>
CHEMBL3824220

> <Target Name>
DNA repair protein RAD51 homolog 1

> <Target Source Organism According to Curator or DataSource>
Homo sapiens

> <Ki (nM)>


> <IC50 (nM)>
 91100

> <Kd (nM)>


> <EC50 (nM)>


> <kon (M-1-s-1)>


> <koff (s-1)>


> <pH>


> <Temp C>


> <Curation/DataSource>
ChEMBL

> <Article DOI>
10.1021/acs.jmedchem.5b01762

> <BindingDB Entry DOI>
10.7270/Q200041Q

> <PMID>
27049177

> <PubChem AID>


> <Patent Number>


> <Authors>
Lv, W; Budke, B; Pawlowski, M; Connell, PP; Kozikowski, AP

> <Date of publication>
5/26/2016

> <Date in BindingDB>
10/1/2017

> <Institution>
University of Illinois at Chicago

> <Link to Ligand in BindingDB>
http://www.bindingdb.org/bind/chemsearch/marvin/MolStructure.jsp?monomerid=50184407

> <Link to Ligand-Target Pair in BindingDB>
http://www.bindingdb.org/jsp/dbsearch/PrimarySearch_ki.jsp?energyterm=kJ/mole&tag=pol&polymerid=4676&target=DNA+repair+protein+RAD51+homolog+1&column=ki&startPg=0&Increment=50&submit=Search

> <Link to Ligand-Target Pair in BindingDB>
http://www.bindingdb.org/jsp/dbsearch/PrimarySearch_ki.jsp?energyterm=kJ/mole&tag=r21&monomerid=50184407&enzyme=DNA+repair+protein+RAD51+homolog+1&column=ki&startPg=0&Increment=50&submit=Search

> <Ligand HET ID in PDB>


> <PDB ID(s) for Ligand-Target Complex>


> <PubChem CID of Ligand>
127052564

> <PubChem SID of Ligand>
346550378

> <ChEBI ID of Ligand>


> <ChEMBL ID of Ligand>
CHEMBL3824220

> <DrugBank ID of Ligand>


> <IUPHAR_GRAC ID of Ligand>


> <KEGG ID of Ligand>


> <ZINC ID of Ligand>


> <Number of Protein Chains in Target (bigger than 1 implies a multichain complex)>
1

> <BindingDB Target Chain Sequence>
MAMQMQLEANADTSVEEESFGPQPISRLEQCGINANDVKKLEEAGFHTVEAVAYAPKKELINIKGISEAKADKILAEAAKLVPMGFTTATEFHQRRSEIIQITTGSKELDKLLQGGIETGSITEMFGEFRTGKTQICHTLAVTCQLPIDRGGGEGKAMYIDTEGTFRPERLLAVAERYGLSGSDVLDNVAYARAFNTDHQTQLLYQASAMMVESRYALLIVDSATALYRTDYSGRGELSARQMHLARFLRMLLRLADEFGVAVVITNQVVAQVDGAAMFAADPKKPIGGNIIAHASTTRLYLRKGRGETRICKIYDSPCLPEAEAMFAINADGVGDAKD

> <PDB ID(s) of Target Chain>
1N0W,5JZC,5NP7,5NWL,8BQ2,8BR2,8BSC

> <UniProt (SwissProt) Recommended Name of Target Chain>
DNA repair protein RAD51 homolog 1

> <UniProt (SwissProt) Entry Name of Target Chain>
RAD51_HUMAN

> <UniProt (SwissProt) Primary ID of Target Chain>
Q06609

> <UniProt (SwissProt) Secondary ID(s) of Target Chain>
B0FXP0 B2R8T6 Q6FHX9 Q6ZNA8 Q9BV60

> <UniProt (SwissProt) Alternative ID(s) of Target Chain>


> <UniProt (TrEMBL) Submitted Name of Target Chain>


> <UniProt (TrEMBL) Entry Name of Target Chain>


> <UniProt (TrEMBL) Primary ID of Target Chain>


> <UniProt (TrEMBL) Secondary ID(s) of Target Chain>


> <UniProt (TrEMBL) Alternative ID(s) of Target Chain>


$$$$
796318
  Mrv0541 11251415402D          

 21 23  0  0  0  0            999 V2000
    4.7504    1.4954    0.0000 Cl  0  0  0  0  0  0  0  0  0  0  0  0
    2.4239   -1.2666    0.0000 Cl  0  0  0  0  0  0  0  0  0  0  0  0
    1.9856    2.8304    0.0000 O   0  0  0  0  0  0  0  0  0  0  0  0
    2.4008   -0.2115    0.0000 O   0  0  0  0  0  0  0  0  0  0  0  0
    5.3050   -0.2115    0.0000 O   0  0  0  0  0  0  0  0  0  0  0  0
    2.9555    1.4954    0.0000 N   0  0  0  0  0  0  0  0  0  0  0  0
    3.8529   -0.4415    0.0000 N   0  0  0  0  0  0  0  0  0  0  0  0
    2.1350    1.4092    0.0000 C   0  0  0  0  0  0  0  0  0  0  0  0
    3.2910    2.2492    0.0000 C   0  0  0  0  0  0  0  0  0  0  0  0
    3.4404    0.8280    0.0000 C   0  0  0  0  0  0  0  0  0  0  0  0
    1.6500    2.0767    0.0000 C   0  0  0  0  0  0  0  0  0  0  0  0
    2.8061    2.9166    0.0000 C   0  0  0  0  0  0  0  0  0  0  0  0
    3.1855    0.0434    0.0000 C   0  0  0  0  0  0  0  0  0  0  0  0
    4.2654    0.8280    0.0000 C   0  0  0  0  0  0  0  0  0  0  0  0
    4.5204    0.0434    0.0000 C   0  0  0  0  0  0  0  0  0  0  0  0
    3.8529   -1.2666    0.0000 C   0  0  0  0  0  0  0  0  0  0  0  0
    3.1385   -1.6791    0.0000 C   0  0  0  0  0  0  0  0  0  0  0  0
    4.5674   -1.6791    0.0000 C   0  0  0  0  0  0  0  0  0  0  0  0
    3.1385   -2.5041    0.0000 C   0  0  0  0  0  0  0  0  0  0  0  0
    4.5674   -2.5041    0.0000 C   0  0  0  0  0  0  0  0  0  0  0  0
    3.8529   -2.9166    0.0000 C   0  0  0  0  0  0  0  0  0  0  0  0
  1 14  1  0  0  0  0
  2 17  1  0  0  0  0
  3 11  1  0  0  0  0
  3 12  1  0  0  0  0
  4 13  2  0  0  0  0
  5 15  2  0  0  0  0
  6  8  1  0  0  0  0
  6  9  1  0  0  0  0
  6 10  1  0  0  0  0
  7 13  1  0  0  0  0
  7 15  1  0  0  0  0
  7 16  1  0  0  0  0
  8 11  1  0  0  0  0
  9 12  1  0  0  0  0
 10 13  1  0  0  0  0
 10 14  2  0  0  0  0
 14 15  1  0  0  0  0
 16 17  2  0  0  0  0
 16 18  1  0  0  0  0
 17 19  1  0  0  0  0
 18 20  2  0  0  0  0
 19 21  2  0  0  0  0
 20 21  1  0  0  0  0
M  END
> <From>
www.bindingDB.org

> <BindingDB Reactant_set_id>
51040187

> <Ligand InChI>
InChI=1S/C14H12Cl2N2O3/c15-9-3-1-2-4-10(9)18-13(19)11(16)12(14(18)20)17-5-7-21-8-6-17/h1-4H,5-8H2

> <Ligand InChI Key>
IZBZZJWLLSFVOC-UHFFFAOYSA-N

> <BindingDB MonomerID>
39129

> <BindingDB Ligand Name>
3-chloranyl-1-(2-chlorophenyl)-4-morpholin-4-yl-pyrrole-2,5-dione::3-chloro-1-(2-chlorophenyl)-4-(4-morpholinyl)pyrrole-2,5-dione::3-chloro-1-(2-chlorophenyl)-4-morpholin-4-ylpyrrole-2,5-dione::3-chloro-1-(2-chlorophenyl)-4-morpholino-3-pyrroline-2,5-quinone::MLS-0013275.0001::cid_796318

> <Target Name>
DNA repair protein RAD51 homolog 1

> <Target Source Organism According to Curator or DataSource>
Homo sapiens

> <Ki (nM)>


> <IC50 (nM)>
 19700

> <Kd (nM)>


> <EC50 (nM)>


> <kon (M-1-s-1)>


> <koff (s-1)>


> <pH>


> <Temp C>


> <Curation/DataSource>
ChEMBL

> <Article DOI>
10.1021/jm301565b

> <BindingDB Entry DOI>
10.7270/Q2VD70R1

> <PMID>
23231413

> <PubChem AID>


> <Patent Number>


> <Authors>
Budke, B; Kalin, JH; Pawlowski, M; Zelivianskaia, AS; Wu, M; Kozikowski, AP; Connell, PP

> <Date of publication>
1/10/2013

> <Date in BindingDB>
9/24/2013

> <Institution>
University of Chicago

> <Link to Ligand in BindingDB>
http://www.bindingdb.org/bind/chemsearch/marvin/MolStructure.jsp?monomerid=39129

> <Link to Ligand-Target Pair in BindingDB>
http://www.bindingdb.org/jsp/dbsearch/PrimarySearch_ki.jsp?energyterm=kJ/mole&tag=pol&polymerid=4676&target=DNA+repair+protein+RAD51+homolog+1&column=ki&startPg=0&Increment=50&submit=Search

> <Link to Ligand-Target Pair in BindingDB>
http://www.bindingdb.org/jsp/dbsearch/PrimarySearch_ki.jsp?energyterm=kJ/mole&tag=r21&monomerid=39129&enzyme=DNA+repair+protein+RAD51+homolog+1&column=ki&startPg=0&Increment=50&submit=Search

> <Ligand HET ID in PDB>


> <PDB ID(s) for Ligand-Target Complex>


> <PubChem CID of Ligand>
796318

> <PubChem SID of Ligand>
252620028

> <ChEBI ID of Ligand>


> <ChEMBL ID of Ligand>


> <DrugBank ID of Ligand>


> <IUPHAR_GRAC ID of Ligand>


> <KEGG ID of Ligand>


> <ZINC ID of Ligand>
ZINC00300324

> <Number of Protein Chains in Target (bigger than 1 implies a multichain complex)>
1

> <BindingDB Target Chain Sequence>
MAMQMQLEANADTSVEEESFGPQPISRLEQCGINANDVKKLEEAGFHTVEAVAYAPKKELINIKGISEAKADKILAEAAKLVPMGFTTATEFHQRRSEIIQITTGSKELDKLLQGGIETGSITEMFGEFRTGKTQICHTLAVTCQLPIDRGGGEGKAMYIDTEGTFRPERLLAVAERYGLSGSDVLDNVAYARAFNTDHQTQLLYQASAMMVESRYALLIVDSATALYRTDYSGRGELSARQMHLARFLRMLLRLADEFGVAVVITNQVVAQVDGAAMFAADPKKPIGGNIIAHASTTRLYLRKGRGETRICKIYDSPCLPEAEAMFAINADGVGDAKD

> <PDB ID(s) of Target Chain>
1N0W,5JZC,5NP7,5NWL,8BQ2,8BR2,8BSC

> <UniProt (SwissProt) Recommended Name of Target Chain>
DNA repair protein RAD51 homolog 1

> <UniProt (SwissProt) Entry Name of Target Chain>
RAD51_HUMAN

> <UniProt (SwissProt) Primary ID of Target Chain>
Q06609

> <UniProt (SwissProt) Secondary ID(s) of Target Chain>
B0FXP0 B2R8T6 Q6FHX9 Q6ZNA8 Q9BV60

> <UniProt (SwissProt) Alternative ID(s) of Target Chain>


> <UniProt (TrEMBL) Submitted Name of Target Chain>


> <UniProt (TrEMBL) Entry Name of Target Chain>


> <UniProt (TrEMBL) Primary ID of Target Chain>


> <UniProt (TrEMBL) Secondary ID(s) of Target Chain>


> <UniProt (TrEMBL) Alternative ID(s) of Target Chain>


$$$$

  Mrv0541 11241415522D          

 28 31  0  0  0  0            999 V2000
    2.3822  -10.5636    0.0000 C   0  0  0  0  0  0  0  0  0  0  0  0
    2.3810  -11.3911    0.0000 C   0  0  0  0  0  0  0  0  0  0  0  0
    3.0959  -11.8040    0.0000 C   0  0  0  0  0  0  0  0  0  0  0  0
    3.8124  -11.3906    0.0000 C   0  0  0  0  0  0  0  0  0  0  0  0
    3.8096  -10.5600    0.0000 C   0  0  0  0  0  0  0  0  0  0  0  0
    3.0941  -10.1508    0.0000 C   0  0  0  0  0  0  0  0  0  0  0  0
    3.0943  -12.6280    0.0000 N   0  0  0  0  0  0  0  0  0  0  0  0
    2.4267  -13.1129    0.0000 C   0  0  0  0  0  0  0  0  0  0  0  0
    2.6816  -13.8975    0.0000 C   0  0  0  0  0  0  0  0  0  0  0  0
    3.5066  -13.8983    0.0000 C   0  0  0  0  0  0  0  0  0  0  0  0
    3.7617  -13.1133    0.0000 C   0  0  0  0  0  0  0  0  0  0  0  0
    4.5464  -12.8584    0.0000 O   0  0  0  0  0  0  0  0  0  0  0  0
    1.6421  -12.8577    0.0000 O   0  0  0  0  0  0  0  0  0  0  0  0
    3.0916   -9.3257    0.0000 Cl  0  0  0  0  0  0  0  0  0  0  0  0
    4.5226  -10.1447    0.0000 Cl  0  0  0  0  0  0  0  0  0  0  0  0
    3.9377  -14.6000    0.0000 N   0  0  0  0  0  0  0  0  0  0  0  0
    3.5422  -15.3254    0.0000 C   0  0  0  0  0  0  0  0  0  0  0  0
    3.9725  -16.0285    0.0000 C   0  0  0  0  0  0  0  0  0  0  0  0
    4.7982  -16.0075    0.0000 O   0  0  0  0  0  0  0  0  0  0  0  0
    5.1917  -15.2774    0.0000 C   0  0  0  0  0  0  0  0  0  0  0  0
    4.7592  -14.5773    0.0000 C   0  0  0  0  0  0  0  0  0  0  0  0
    2.2652  -14.6077    0.0000 C   0  0  0  0  0  0  0  0  0  0  0  0
    1.4390  -14.6009    0.0000 C   0  0  0  0  0  0  0  0  0  0  0  0
    1.0218  -15.3119    0.0000 C   0  0  0  0  0  0  0  0  0  0  0  0
    1.4297  -16.0302    0.0000 C   0  0  0  0  0  0  0  0  0  0  0  0
    2.2590  -16.0329    0.0000 C   0  0  0  0  0  0  0  0  0  0  0  0
    2.6725  -15.3214    0.0000 C   0  0  0  0  0  0  0  0  0  0  0  0
    1.0134  -16.7425    0.0000 N   0  0  0  0  0  0  0  0  0  0  0  0
  1  2  2  0  0  0  0
  2  3  1  0  0  0  0
  3  4  2  0  0  0  0
  4  5  1  0  0  0  0
  5  6  2  0  0  0  0
  6  1  1  0  0  0  0
  7  8  1  0  0  0  0
  8  9  1  0  0  0  0
  9 10  2  0  0  0  0
 10 11  1  0  0  0  0
 11  7  1  0  0  0  0
  3  7  1  0  0  0  0
 11 12  2  0  0  0  0
  8 13  2  0  0  0  0
  6 14  1  0  0  0  0
  5 15  1  0  0  0  0
 16 17  1  0  0  0  0
 17 18  1  0  0  0  0
 18 19  1  0  0  0  0
 19 20  1  0  0  0  0
 20 21  1  0  0  0  0
 21 16  1  0  0  0  0
 10 16  1  0  0  0  0
 22 23  2  0  0  0  0
 23 24  1  0  0  0  0
 24 25  2  0  0  0  0
 25 26  1  0  0  0  0
 26 27  2  0  0  0  0
 27 22  1  0  0  0  0
  9 22  1  0  0  0  0
 25 28  1  0  0  0  0
M  END
> <From>
www.bindingDB.org

> <BindingDB Reactant_set_id>
51040188

> <Ligand InChI>
InChI=1S/C20H17Cl2N3O3/c21-15-6-5-14(11-16(15)22)25-19(26)17(12-1-3-13(23)4-2-12)18(20(25)27)24-7-9-28-10-8-24/h1-6,11H,7-10,23H2

> <Ligand InChI Key>
OYXAQOBSVXPZMQ-UHFFFAOYSA-N

> <BindingDB MonomerID>
50424493

> <BindingDB Ligand Name>
CHEMBL2316730

> <Target Name>
DNA repair protein RAD51 homolog 1

> <Target Source Organism According to Curator or DataSource>
Homo sapiens

> <Ki (nM)>


> <IC50 (nM)>
>50000

> <Kd (nM)>


> <EC50 (nM)>


> <kon (M-1-s-1)>


> <koff (s-1)>


> <pH>


> <Temp C>


> <Curation/DataSource>
ChEMBL

> <Article DOI>
10.1021/jm301565b

> <BindingDB Entry DOI>
10.7270/Q2VD70R1

> <PMID>
23231413

> <PubChem AID>


> <Patent Number>


> <Authors>
Budke, B; Kalin, JH; Pawlowski, M; Zelivianskaia, AS; Wu, M; Kozikowski, AP; Connell, PP

> <Date of publication>
1/10/2013

> <Date in BindingDB>
9/24/2013

> <Institution>
University of Chicago

> <Link to Ligand in BindingDB>
http://www.bindingdb.org/bind/chemsearch/marvin/MolStructure.jsp?monomerid=50424493

> <Link to Ligand-Target Pair in BindingDB>
http://www.bindingdb.org/jsp/dbsearch/PrimarySearch_ki.jsp?energyterm=kJ/mole&tag=pol&polymerid=4676&target=DNA+repair+protein+RAD51+homolog+1&column=ki&startPg=0&Increment=50&submit=Search

> <Link to Ligand-Target Pair in BindingDB>
http://www.bindingdb.org/jsp/dbsearch/PrimarySearch_ki.jsp?energyterm=kJ/mole&tag=r21&monomerid=50424493&enzyme=DNA+repair+protein+RAD51+homolog+1&column=ki&startPg=0&Increment=50&submit=Search

> <Ligand HET ID in PDB>


> <PDB ID(s) for Ligand-Target Complex>


> <PubChem CID of Ligand>
71544709

> <PubChem SID of Ligand>
164153368

> <ChEBI ID of Ligand>


> <ChEMBL ID of Ligand>
CHEMBL2316730

> <DrugBank ID of Ligand>


> <IUPHAR_GRAC ID of Ligand>


> <KEGG ID of Ligand>


> <ZINC ID of Ligand>
ZINC95594649

> <Number of Protein Chains in Target (bigger than 1 implies a multichain complex)>
1

> <BindingDB Target Chain Sequence>
MAMQMQLEANADTSVEEESFGPQPISRLEQCGINANDVKKLEEAGFHTVEAVAYAPKKELINIKGISEAKADKILAEAAKLVPMGFTTATEFHQRRSEIIQITTGSKELDKLLQGGIETGSITEMFGEFRTGKTQICHTLAVTCQLPIDRGGGEGKAMYIDTEGTFRPERLLAVAERYGLSGSDVLDNVAYARAFNTDHQTQLLYQASAMMVESRYALLIVDSATALYRTDYSGRGELSARQMHLARFLRMLLRLADEFGVAVVITNQVVAQVDGAAMFAADPKKPIGGNIIAHASTTRLYLRKGRGETRICKIYDSPCLPEAEAMFAINADGVGDAKD

> <PDB ID(s) of Target Chain>
1N0W,5JZC,5NP7,5NWL,8BQ2,8BR2,8BSC

> <UniProt (SwissProt) Recommended Name of Target Chain>
DNA repair protein RAD51 homolog 1

> <UniProt (SwissProt) Entry Name of Target Chain>
RAD51_HUMAN

> <UniProt (SwissProt) Primary ID of Target Chain>
Q06609

> <UniProt (SwissProt) Secondary ID(s) of Target Chain>
B0FXP0 B2R8T6 Q6FHX9 Q6ZNA8 Q9BV60

> <UniProt (SwissProt) Alternative ID(s) of Target Chain>


> <UniProt (TrEMBL) Submitted Name of Target Chain>


> <UniProt (TrEMBL) Entry Name of Target Chain>


> <UniProt (TrEMBL) Primary ID of Target Chain>


> <UniProt (TrEMBL) Secondary ID(s) of Target Chain>


> <UniProt (TrEMBL) Alternative ID(s) of Target Chain>


$$$$

  Mrv0541 11241415522D          

 30 33  0  0  0  0            999 V2000
   12.8663   -2.0835    0.0000 C   0  0  0  0  0  0  0  0  0  0  0  0
   12.8651   -2.9109    0.0000 C   0  0  0  0  0  0  0  0  0  0  0  0
   13.5800   -3.3238    0.0000 C   0  0  0  0  0  0  0  0  0  0  0  0
   14.2964   -2.9104    0.0000 C   0  0  0  0  0  0  0  0  0  0  0  0
   14.2936   -2.0799    0.0000 C   0  0  0  0  0  0  0  0  0  0  0  0
   13.5782   -1.6706    0.0000 C   0  0  0  0  0  0  0  0  0  0  0  0
   13.5784   -4.1478    0.0000 N   0  0  0  0  0  0  0  0  0  0  0  0
   12.9108   -4.6326    0.0000 C   0  0  0  0  0  0  0  0  0  0  0  0
   13.1657   -5.4172    0.0000 C   0  0  0  0  0  0  0  0  0  0  0  0
   13.9906   -5.4180    0.0000 C   0  0  0  0  0  0  0  0  0  0  0  0
   14.2458   -4.6329    0.0000 C   0  0  0  0  0  0  0  0  0  0  0  0
   15.0305   -4.3782    0.0000 O   0  0  0  0  0  0  0  0  0  0  0  0
   12.1262   -4.3775    0.0000 O   0  0  0  0  0  0  0  0  0  0  0  0
   13.5757   -0.8456    0.0000 Cl  0  0  0  0  0  0  0  0  0  0  0  0
   15.0066   -1.6646    0.0000 Cl  0  0  0  0  0  0  0  0  0  0  0  0
   14.4217   -6.1197    0.0000 N   0  0  0  0  0  0  0  0  0  0  0  0
   14.0263   -6.8450    0.0000 C   0  0  0  0  0  0  0  0  0  0  0  0
   14.4566   -7.5481    0.0000 C   0  0  0  0  0  0  0  0  0  0  0  0
   15.2823   -7.5271    0.0000 O   0  0  0  0  0  0  0  0  0  0  0  0
   15.6757   -6.7971    0.0000 C   0  0  0  0  0  0  0  0  0  0  0  0
   15.2432   -6.0970    0.0000 C   0  0  0  0  0  0  0  0  0  0  0  0
   12.7493   -6.1274    0.0000 C   0  0  0  0  0  0  0  0  0  0  0  0
   11.9231   -6.1206    0.0000 C   0  0  0  0  0  0  0  0  0  0  0  0
   11.5060   -6.8316    0.0000 C   0  0  0  0  0  0  0  0  0  0  0  0
   11.9138   -7.5498    0.0000 C   0  0  0  0  0  0  0  0  0  0  0  0
   12.7431   -7.5526    0.0000 C   0  0  0  0  0  0  0  0  0  0  0  0
   13.1566   -6.8411    0.0000 C   0  0  0  0  0  0  0  0  0  0  0  0
   11.4975   -8.2622    0.0000 N   0  0  0  0  0  0  0  0  0  0  0  0
   10.6725   -8.2578    0.0000 C   0  0  0  0  0  0  0  0  0  0  0  0
   11.9063   -8.9788    0.0000 C   0  0  0  0  0  0  0  0  0  0  0  0
  1  2  2  0  0  0  0
  2  3  1  0  0  0  0
  3  4  2  0  0  0  0
  4  5  1  0  0  0  0
  5  6  2  0  0  0  0
  6  1  1  0  0  0  0
  7  8  1  0  0  0  0
  8  9  1  0  0  0  0
  9 10  2  0  0  0  0
 10 11  1  0  0  0  0
 11  7  1  0  0  0  0
  3  7  1  0  0  0  0
 11 12  2  0  0  0  0
  8 13  2  0  0  0  0
  6 14  1  0  0  0  0
  5 15  1  0  0  0  0
 16 17  1  0  0  0  0
 17 18  1  0  0  0  0
 18 19  1  0  0  0  0
 19 20  1  0  0  0  0
 20 21  1  0  0  0  0
 21 16  1  0  0  0  0
 10 16  1  0  0  0  0
 22 23  2  0  0  0  0
 23 24  1  0  0  0  0
 24 25  2  0  0  0  0
 25 26  1  0  0  0  0
 26 27  2  0  0  0  0
 27 22  1  0  0  0  0
  9 22  1  0  0  0  0
 25 28  1  0  0  0  0
 28 29  1  0  0  0  0
 28 30  1  0  0  0  0
M  END
> <From>
www.bindingDB.org

> <BindingDB Reactant_set_id>
51040189

> <Ligand InChI>
InChI=1S/C22H21Cl2N3O3/c1-25(2)15-5-3-14(4-6-15)19-20(26-9-11-30-12-10-26)22(29)27(21(19)28)16-7-8-17(23)18(24)13-16/h3-8,13H,9-12H2,1-2H3

> <Ligand InChI Key>
NOXMIWOKUBFVJW-UHFFFAOYSA-N

> <BindingDB MonomerID>
50424494

> <BindingDB Ligand Name>
CHEMBL2316728

> <Target Name>
DNA repair protein RAD51 homolog 1

> <Target Source Organism According to Curator or DataSource>
Homo sapiens

> <Ki (nM)>


> <IC50 (nM)>
>50000

> <Kd (nM)>


> <EC50 (nM)>


> <kon (M-1-s-1)>


> <koff (s-1)>


> <pH>


> <Temp C>


> <Curation/DataSource>
ChEMBL

> <Article DOI>
10.1021/jm301565b

> <BindingDB Entry DOI>
10.7270/Q2VD70R1

> <PMID>
23231413

> <PubChem AID>


> <Patent Number>


> <Authors>
Budke, B; Kalin, JH; Pawlowski, M; Zelivianskaia, AS; Wu, M; Kozikowski, AP; Connell, PP

> <Date of publication>
1/10/2013

> <Date in BindingDB>
9/24/2013

> <Institution>
University of Chicago

> <Link to Ligand in BindingDB>
http://www.bindingdb.org/bind/chemsearch/marvin/MolStructure.jsp?monomerid=50424494

> <Link to Ligand-Target Pair in BindingDB>
http://www.bindingdb.org/jsp/dbsearch/PrimarySearch_ki.jsp?energyterm=kJ/mole&tag=pol&polymerid=4676&target=DNA+repair+protein+RAD51+homolog+1&column=ki&startPg=0&Increment=50&submit=Search

> <Link to Ligand-Target Pair in BindingDB>
http://www.bindingdb.org/jsp/dbsearch/PrimarySearch_ki.jsp?energyterm=kJ/mole&tag=r21&monomerid=50424494&enzyme=DNA+repair+protein+RAD51+homolog+1&column=ki&startPg=0&Increment=50&submit=Search

> <Ligand HET ID in PDB>


> <PDB ID(s) for Ligand-Target Complex>


> <PubChem CID of Ligand>
71547140

> <PubChem SID of Ligand>
164153369

> <ChEBI ID of Ligand>


> <ChEMBL ID of Ligand>
CHEMBL2316728

> <DrugBank ID of Ligand>


> <IUPHAR_GRAC ID of Ligand>


> <KEGG ID of Ligand>


> <ZINC ID of Ligand>
ZINC95593246

> <Number of Protein Chains in Target (bigger than 1 implies a multichain complex)>
1

> <BindingDB Target Chain Sequence>
MAMQMQLEANADTSVEEESFGPQPISRLEQCGINANDVKKLEEAGFHTVEAVAYAPKKELINIKGISEAKADKILAEAAKLVPMGFTTATEFHQRRSEIIQITTGSKELDKLLQGGIETGSITEMFGEFRTGKTQICHTLAVTCQLPIDRGGGEGKAMYIDTEGTFRPERLLAVAERYGLSGSDVLDNVAYARAFNTDHQTQLLYQASAMMVESRYALLIVDSATALYRTDYSGRGELSARQMHLARFLRMLLRLADEFGVAVVITNQVVAQVDGAAMFAADPKKPIGGNIIAHASTTRLYLRKGRGETRICKIYDSPCLPEAEAMFAINADGVGDAKD

> <PDB ID(s) of Target Chain>
1N0W,5JZC,5NP7,5NWL,8BQ2,8BR2,8BSC

> <UniProt (SwissProt) Recommended Name of Target Chain>
DNA repair protein RAD51 homolog 1

> <UniProt (SwissProt) Entry Name of Target Chain>
RAD51_HUMAN

> <UniProt (SwissProt) Primary ID of Target Chain>
Q06609

> <UniProt (SwissProt) Secondary ID(s) of Target Chain>
B0FXP0 B2R8T6 Q6FHX9 Q6ZNA8 Q9BV60

> <UniProt (SwissProt) Alternative ID(s) of Target Chain>


> <UniProt (TrEMBL) Submitted Name of Target Chain>


> <UniProt (TrEMBL) Entry Name of Target Chain>


> <UniProt (TrEMBL) Primary ID of Target Chain>


> <UniProt (TrEMBL) Secondary ID(s) of Target Chain>


> <UniProt (TrEMBL) Alternative ID(s) of Target Chain>


$$$$

  Mrv0541 11241415522D          

 29 32  0  0  0  0            999 V2000
    2.4363   -1.9585    0.0000 C   0  0  0  0  0  0  0  0  0  0  0  0
    2.4352   -2.7860    0.0000 C   0  0  0  0  0  0  0  0  0  0  0  0
    3.1500   -3.1989    0.0000 C   0  0  0  0  0  0  0  0  0  0  0  0
    3.8666   -2.7855    0.0000 C   0  0  0  0  0  0  0  0  0  0  0  0
    3.8637   -1.9549    0.0000 C   0  0  0  0  0  0  0  0  0  0  0  0
    3.1482   -1.5457    0.0000 C   0  0  0  0  0  0  0  0  0  0  0  0
    3.1485   -4.0229    0.0000 N   0  0  0  0  0  0  0  0  0  0  0  0
    2.4809   -4.5077    0.0000 C   0  0  0  0  0  0  0  0  0  0  0  0
    2.7357   -5.2923    0.0000 C   0  0  0  0  0  0  0  0  0  0  0  0
    3.5607   -5.2931    0.0000 C   0  0  0  0  0  0  0  0  0  0  0  0
    3.8158   -4.5080    0.0000 C   0  0  0  0  0  0  0  0  0  0  0  0
    4.6006   -4.2532    0.0000 O   0  0  0  0  0  0  0  0  0  0  0  0
    1.6962   -4.2526    0.0000 O   0  0  0  0  0  0  0  0  0  0  0  0
    3.1458   -0.7206    0.0000 Cl  0  0  0  0  0  0  0  0  0  0  0  0
    4.5767   -1.5396    0.0000 Cl  0  0  0  0  0  0  0  0  0  0  0  0
    3.9919   -5.9949    0.0000 N   0  0  0  0  0  0  0  0  0  0  0  0
    3.5963   -6.7202    0.0000 C   0  0  0  0  0  0  0  0  0  0  0  0
    4.0266   -7.4233    0.0000 C   0  0  0  0  0  0  0  0  0  0  0  0
    4.8523   -7.4022    0.0000 O   0  0  0  0  0  0  0  0  0  0  0  0
    5.2459   -6.6722    0.0000 C   0  0  0  0  0  0  0  0  0  0  0  0
    4.8133   -5.9721    0.0000 C   0  0  0  0  0  0  0  0  0  0  0  0
    2.3193   -6.0025    0.0000 C   0  0  0  0  0  0  0  0  0  0  0  0
    1.4932   -5.9958    0.0000 C   0  0  0  0  0  0  0  0  0  0  0  0
    1.0760   -6.7068    0.0000 C   0  0  0  0  0  0  0  0  0  0  0  0
    1.4839   -7.4250    0.0000 C   0  0  0  0  0  0  0  0  0  0  0  0
    2.3132   -7.4278    0.0000 C   0  0  0  0  0  0  0  0  0  0  0  0
    2.7267   -6.7162    0.0000 C   0  0  0  0  0  0  0  0  0  0  0  0
    1.0676   -8.1374    0.0000 O   0  0  0  0  0  0  0  0  0  0  0  0
    0.2425   -8.1330    0.0000 C   0  0  0  0  0  0  0  0  0  0  0  0
  1  2  2  0  0  0  0
  2  3  1  0  0  0  0
  3  4  2  0  0  0  0
  4  5  1  0  0  0  0
  5  6  2  0  0  0  0
  6  1  1  0  0  0  0
  7  8  1  0  0  0  0
  8  9  1  0  0  0  0
  9 10  2  0  0  0  0
 10 11  1  0  0  0  0
 11  7  1  0  0  0  0
  3  7  1  0  0  0  0
 11 12  2  0  0  0  0
  8 13  2  0  0  0  0
  6 14  1  0  0  0  0
  5 15  1  0  0  0  0
 16 17  1  0  0  0  0
 17 18  1  0  0  0  0
 18 19  1  0  0  0  0
 19 20  1  0  0  0  0
 20 21  1  0  0  0  0
 21 16  1  0  0  0  0
 10 16  1  0  0  0  0
 22 23  2  0  0  0  0
 23 24  1  0  0  0  0
 24 25  2  0  0  0  0
 25 26  1  0  0  0  0
 26 27  2  0  0  0  0
 27 22  1  0  0  0  0
  9 22  1  0  0  0  0
 25 28  1  0  0  0  0
 28 29  1  0  0  0  0
M  END
> <From>
www.bindingDB.org

> <BindingDB Reactant_set_id>
51040190

> <Ligand InChI>
InChI=1S/C21H18Cl2N2O4/c1-28-15-5-2-13(3-6-15)18-19(24-8-10-29-11-9-24)21(27)25(20(18)26)14-4-7-16(22)17(23)12-14/h2-7,12H,8-11H2,1H3

> <Ligand InChI Key>
JMPJNNOSVCHYOU-UHFFFAOYSA-N

> <BindingDB MonomerID>
50424495

> <BindingDB Ligand Name>
CHEMBL2316726

> <Target Name>
DNA repair protein RAD51 homolog 1

> <Target Source Organism According to Curator or DataSource>
Homo sapiens

> <Ki (nM)>


> <IC50 (nM)>
 44170

> <Kd (nM)>


> <EC50 (nM)>


> <kon (M-1-s-1)>


> <koff (s-1)>


> <pH>


> <Temp C>


> <Curation/DataSource>
ChEMBL

> <Article DOI>
10.1021/jm301565b

> <BindingDB Entry DOI>
10.7270/Q2VD70R1

> <PMID>
23231413

> <PubChem AID>


> <Patent Number>


> <Authors>
Budke, B; Kalin, JH; Pawlowski, M; Zelivianskaia, AS; Wu, M; Kozikowski, AP; Connell, PP

> <Date of publication>
1/10/2013

> <Date in BindingDB>
9/24/2013

> <Institution>
University of Chicago

> <Link to Ligand in BindingDB>
http://www.bindingdb.org/bind/chemsearch/marvin/MolStructure.jsp?monomerid=50424495

> <Link to Ligand-Target Pair in BindingDB>
http://www.bindingdb.org/jsp/dbsearch/PrimarySearch_ki.jsp?energyterm=kJ/mole&tag=pol&polymerid=4676&target=DNA+repair+protein+RAD51+homolog+1&column=ki&startPg=0&Increment=50&submit=Search

> <Link to Ligand-Target Pair in BindingDB>
http://www.bindingdb.org/jsp/dbsearch/PrimarySearch_ki.jsp?energyterm=kJ/mole&tag=r21&monomerid=50424495&enzyme=DNA+repair+protein+RAD51+homolog+1&column=ki&startPg=0&Increment=50&submit=Search

> <Ligand HET ID in PDB>


> <PDB ID(s) for Ligand-Target Complex>


> <PubChem CID of Ligand>
71547138

> <PubChem SID of Ligand>
164153370

> <ChEBI ID of Ligand>


> <ChEMBL ID of Ligand>
CHEMBL2316726

> <DrugBank ID of Ligand>


> <IUPHAR_GRAC ID of Ligand>


> <KEGG ID of Ligand>


> <ZINC ID of Ligand>
ZINC95596345

> <Number of Protein Chains in Target (bigger than 1 implies a multichain complex)>
1

> <BindingDB Target Chain Sequence>
MAMQMQLEANADTSVEEESFGPQPISRLEQCGINANDVKKLEEAGFHTVEAVAYAPKKELINIKGISEAKADKILAEAAKLVPMGFTTATEFHQRRSEIIQITTGSKELDKLLQGGIETGSITEMFGEFRTGKTQICHTLAVTCQLPIDRGGGEGKAMYIDTEGTFRPERLLAVAERYGLSGSDVLDNVAYARAFNTDHQTQLLYQASAMMVESRYALLIVDSATALYRTDYSGRGELSARQMHLARFLRMLLRLADEFGVAVVITNQVVAQVDGAAMFAADPKKPIGGNIIAHASTTRLYLRKGRGETRICKIYDSPCLPEAEAMFAINADGVGDAKD

> <PDB ID(s) of Target Chain>
1N0W,5JZC,5NP7,5NWL,8BQ2,8BR2,8BSC

> <UniProt (SwissProt) Recommended Name of Target Chain>
DNA repair protein RAD51 homolog 1

> <UniProt (SwissProt) Entry Name of Target Chain>
RAD51_HUMAN

> <UniProt (SwissProt) Primary ID of Target Chain>
Q06609

> <UniProt (SwissProt) Secondary ID(s) of Target Chain>
B0FXP0 B2R8T6 Q6FHX9 Q6ZNA8 Q9BV60

> <UniProt (SwissProt) Alternative ID(s) of Target Chain>


> <UniProt (TrEMBL) Submitted Name of Target Chain>


> <UniProt (TrEMBL) Entry Name of Target Chain>


> <UniProt (TrEMBL) Primary ID of Target Chain>


> <UniProt (TrEMBL) Secondary ID(s) of Target Chain>


> <UniProt (TrEMBL) Alternative ID(s) of Target Chain>


$$$$

  Mrv0541 11241415522D          

 22 24  0  0  0  0            999 V2000
   20.6186  -26.7490    0.0000 C   0  0  0  0  0  0  0  0  0  0  0  0
   20.6175  -27.5763    0.0000 C   0  0  0  0  0  0  0  0  0  0  0  0
   21.3322  -27.9892    0.0000 C   0  0  0  0  0  0  0  0  0  0  0  0
   22.0487  -27.5758    0.0000 C   0  0  0  0  0  0  0  0  0  0  0  0
   22.0459  -26.7454    0.0000 C   0  0  0  0  0  0  0  0  0  0  0  0
   21.3304  -26.3362    0.0000 C   0  0  0  0  0  0  0  0  0  0  0  0
   21.3307  -28.8131    0.0000 N   0  0  0  0  0  0  0  0  0  0  0  0
   20.6632  -29.2978    0.0000 C   0  0  0  0  0  0  0  0  0  0  0  0
   20.9179  -30.0825    0.0000 C   0  0  0  0  0  0  0  0  0  0  0  0
   21.7428  -30.0830    0.0000 C   0  0  0  0  0  0  0  0  0  0  0  0
   21.9979  -29.2981    0.0000 C   0  0  0  0  0  0  0  0  0  0  0  0
   22.7826  -29.0433    0.0000 O   0  0  0  0  0  0  0  0  0  0  0  0
   19.8786  -29.0427    0.0000 O   0  0  0  0  0  0  0  0  0  0  0  0
   21.3280  -25.5112    0.0000 Cl  0  0  0  0  0  0  0  0  0  0  0  0
   22.7587  -26.3302    0.0000 Cl  0  0  0  0  0  0  0  0  0  0  0  0
   22.1740  -30.7848    0.0000 N   0  0  0  0  0  0  0  0  0  0  0  0
   21.7785  -31.5100    0.0000 C   0  0  0  0  0  0  0  0  0  0  0  0
   22.2088  -32.2130    0.0000 C   0  0  0  0  0  0  0  0  0  0  0  0
   23.0344  -32.1919    0.0000 O   0  0  0  0  0  0  0  0  0  0  0  0
   23.4278  -31.4620    0.0000 C   0  0  0  0  0  0  0  0  0  0  0  0
   22.9952  -30.7620    0.0000 C   0  0  0  0  0  0  0  0  0  0  0  0
   20.4328  -30.7497    0.0000 I   0  0  0  0  0  0  0  0  0  0  0  0
  1  2  2  0  0  0  0
  2  3  1  0  0  0  0
  3  4  2  0  0  0  0
  4  5  1  0  0  0  0
  5  6  2  0  0  0  0
  6  1  1  0  0  0  0
  7  8  1  0  0  0  0
  8  9  1  0  0  0  0
  9 10  2  0  0  0  0
 10 11  1  0  0  0  0
 11  7  1  0  0  0  0
  3  7  1  0  0  0  0
 11 12  2  0  0  0  0
  8 13  2  0  0  0  0
  6 14  1  0  0  0  0
  5 15  1  0  0  0  0
 16 17  1  0  0  0  0
 17 18  1  0  0  0  0
 18 19  1  0  0  0  0
 19 20  1  0  0  0  0
 20 21  1  0  0  0  0
 21 16  1  0  0  0  0
 10 16  1  0  0  0  0
  9 22  1  0  0  0  0
M  END
> <From>
www.bindingDB.org

> <BindingDB Reactant_set_id>
51040191

> <Ligand InChI>
InChI=1S/C14H11Cl2IN2O3/c15-9-2-1-8(7-10(9)16)19-13(20)11(17)12(14(19)21)18-3-5-22-6-4-18/h1-2,7H,3-6H2

> <Ligand InChI Key>
QIMNNABAWIIKDU-UHFFFAOYSA-N

> <BindingDB MonomerID>
50424496

> <BindingDB Ligand Name>
CHEMBL2316725

> <Target Name>
DNA repair protein RAD51 homolog 1

> <Target Source Organism According to Curator or DataSource>
Homo sapiens

> <Ki (nM)>


> <IC50 (nM)>
 250

> <Kd (nM)>


> <EC50 (nM)>


> <kon (M-1-s-1)>


> <koff (s-1)>


> <pH>


> <Temp C>


> <Curation/DataSource>
ChEMBL

> <Article DOI>
10.1021/jm301565b

> <BindingDB Entry DOI>
10.7270/Q2VD70R1

> <PMID>
23231413

> <PubChem AID>


> <Patent Number>


> <Authors>
Budke, B; Kalin, JH; Pawlowski, M; Zelivianskaia, AS; Wu, M; Kozikowski, AP; Connell, PP

> <Date of publication>
1/10/2013

> <Date in BindingDB>
9/24/2013

> <Institution>
University of Chicago

> <Link to Ligand in BindingDB>
http://www.bindingdb.org/bind/chemsearch/marvin/MolStructure.jsp?monomerid=50424496

> <Link to Ligand-Target Pair in BindingDB>
http://www.bindingdb.org/jsp/dbsearch/PrimarySearch_ki.jsp?energyterm=kJ/mole&tag=pol&polymerid=4676&target=DNA+repair+protein+RAD51+homolog+1&column=ki&startPg=0&Increment=50&submit=Search

> <Link to Ligand-Target Pair in BindingDB>
http://www.bindingdb.org/jsp/dbsearch/PrimarySearch_ki.jsp?energyterm=kJ/mole&tag=r21&monomerid=50424496&enzyme=DNA+repair+protein+RAD51+homolog+1&column=ki&startPg=0&Increment=50&submit=Search

> <Ligand HET ID in PDB>


> <PDB ID(s) for Ligand-Target Complex>


> <PubChem CID of Ligand>
71544715

> <PubChem SID of Ligand>
164153371

> <ChEBI ID of Ligand>


> <ChEMBL ID of Ligand>
CHEMBL2316725

> <DrugBank ID of Ligand>


> <IUPHAR_GRAC ID of Ligand>


> <KEGG ID of Ligand>


> <ZINC ID of Ligand>
ZINC95594873

> <Number of Protein Chains in Target (bigger than 1 implies a multichain complex)>
1

> <BindingDB Target Chain Sequence>
MAMQMQLEANADTSVEEESFGPQPISRLEQCGINANDVKKLEEAGFHTVEAVAYAPKKELINIKGISEAKADKILAEAAKLVPMGFTTATEFHQRRSEIIQITTGSKELDKLLQGGIETGSITEMFGEFRTGKTQICHTLAVTCQLPIDRGGGEGKAMYIDTEGTFRPERLLAVAERYGLSGSDVLDNVAYARAFNTDHQTQLLYQASAMMVESRYALLIVDSATALYRTDYSGRGELSARQMHLARFLRMLLRLADEFGVAVVITNQVVAQVDGAAMFAADPKKPIGGNIIAHASTTRLYLRKGRGETRICKIYDSPCLPEAEAMFAINADGVGDAKD

> <PDB ID(s) of Target Chain>
1N0W,5JZC,5NP7,5NWL,8BQ2,8BR2,8BSC

> <UniProt (SwissProt) Recommended Name of Target Chain>
DNA repair protein RAD51 homolog 1

> <UniProt (SwissProt) Entry Name of Target Chain>
RAD51_HUMAN

> <UniProt (SwissProt) Primary ID of Target Chain>
Q06609

> <UniProt (SwissProt) Secondary ID(s) of Target Chain>
B0FXP0 B2R8T6 Q6FHX9 Q6ZNA8 Q9BV60

> <UniProt (SwissProt) Alternative ID(s) of Target Chain>


> <UniProt (TrEMBL) Submitted Name of Target Chain>


> <UniProt (TrEMBL) Entry Name of Target Chain>


> <UniProt (TrEMBL) Primary ID of Target Chain>


> <UniProt (TrEMBL) Secondary ID(s) of Target Chain>


> <UniProt (TrEMBL) Alternative ID(s) of Target Chain>


$$$$

  Mrv0541 11241415522D          

 22 24  0  0  0  0            999 V2000
   15.4483  -25.8579    0.0000 C   0  0  0  0  0  0  0  0  0  0  0  0
   15.4472  -26.6853    0.0000 C   0  0  0  0  0  0  0  0  0  0  0  0
   16.1619  -27.0981    0.0000 C   0  0  0  0  0  0  0  0  0  0  0  0
   16.8784  -26.6848    0.0000 C   0  0  0  0  0  0  0  0  0  0  0  0
   16.8756  -25.8542    0.0000 C   0  0  0  0  0  0  0  0  0  0  0  0
   16.1602  -25.4452    0.0000 C   0  0  0  0  0  0  0  0  0  0  0  0
   16.1604  -27.9221    0.0000 N   0  0  0  0  0  0  0  0  0  0  0  0
   15.4929  -28.4068    0.0000 C   0  0  0  0  0  0  0  0  0  0  0  0
   15.7476  -29.1916    0.0000 C   0  0  0  0  0  0  0  0  0  0  0  0
   16.5726  -29.1921    0.0000 C   0  0  0  0  0  0  0  0  0  0  0  0
   16.8277  -28.4071    0.0000 C   0  0  0  0  0  0  0  0  0  0  0  0
   17.6123  -28.1523    0.0000 O   0  0  0  0  0  0  0  0  0  0  0  0
   14.7083  -28.1517    0.0000 O   0  0  0  0  0  0  0  0  0  0  0  0
   16.1577  -24.6202    0.0000 Cl  0  0  0  0  0  0  0  0  0  0  0  0
   17.5884  -25.4391    0.0000 Cl  0  0  0  0  0  0  0  0  0  0  0  0
   17.0037  -29.8938    0.0000 N   0  0  0  0  0  0  0  0  0  0  0  0
   16.6082  -30.6190    0.0000 C   0  0  0  0  0  0  0  0  0  0  0  0
   17.0385  -31.3221    0.0000 C   0  0  0  0  0  0  0  0  0  0  0  0
   17.8641  -31.3010    0.0000 O   0  0  0  0  0  0  0  0  0  0  0  0
   18.2575  -30.5710    0.0000 C   0  0  0  0  0  0  0  0  0  0  0  0
   17.8249  -29.8711    0.0000 C   0  0  0  0  0  0  0  0  0  0  0  0
   15.2624  -29.8588    0.0000 Br  0  0  0  0  0  0  0  0  0  0  0  0
  1  2  2  0  0  0  0
  2  3  1  0  0  0  0
  3  4  2  0  0  0  0
  4  5  1  0  0  0  0
  5  6  2  0  0  0  0
  6  1  1  0  0  0  0
  7  8  1  0  0  0  0
  8  9  1  0  0  0  0
  9 10  2  0  0  0  0
 10 11  1  0  0  0  0
 11  7  1  0  0  0  0
  3  7  1  0  0  0  0
 11 12  2  0  0  0  0
  8 13  2  0  0  0  0
  6 14  1  0  0  0  0
  5 15  1  0  0  0  0
 16 17  1  0  0  0  0
 17 18  1  0  0  0  0
 18 19  1  0  0  0  0
 19 20  1  0  0  0  0
 20 21  1  0  0  0  0
 21 16  1  0  0  0  0
 10 16  1  0  0  0  0
  9 22  1  0  0  0  0
M  END
> <From>
www.bindingDB.org

> <BindingDB Reactant_set_id>
51040192

> <Ligand InChI>
InChI=1S/C14H11BrCl2N2O3/c15-11-12(18-3-5-22-6-4-18)14(21)19(13(11)20)8-1-2-9(16)10(17)7-8/h1-2,7H,3-6H2

> <Ligand InChI Key>
MDSQYIHALAGRJA-UHFFFAOYSA-N

> <BindingDB MonomerID>
50424497

> <BindingDB Ligand Name>
CHEMBL2316724

> <Target Name>
DNA repair protein RAD51 homolog 1

> <Target Source Organism According to Curator or DataSource>
Homo sapiens

> <Ki (nM)>


> <IC50 (nM)>
 370

> <Kd (nM)>


> <EC50 (nM)>


> <kon (M-1-s-1)>


> <koff (s-1)>


> <pH>


> <Temp C>


> <Curation/DataSource>
ChEMBL

> <Article DOI>
10.1021/jm301565b

> <BindingDB Entry DOI>
10.7270/Q2VD70R1

> <PMID>
23231413

> <PubChem AID>


> <Patent Number>


> <Authors>
Budke, B; Kalin, JH; Pawlowski, M; Zelivianskaia, AS; Wu, M; Kozikowski, AP; Connell, PP

> <Date of publication>
1/10/2013

> <Date in BindingDB>
9/24/2013

> <Institution>
University of Chicago

> <Link to Ligand in BindingDB>
http://www.bindingdb.org/bind/chemsearch/marvin/MolStructure.jsp?monomerid=50424497

> <Link to Ligand-Target Pair in BindingDB>
http://www.bindingdb.org/jsp/dbsearch/PrimarySearch_ki.jsp?energyterm=kJ/mole&tag=pol&polymerid=4676&target=DNA+repair+protein+RAD51+homolog+1&column=ki&startPg=0&Increment=50&submit=Search

> <Link to Ligand-Target Pair in BindingDB>
http://www.bindingdb.org/jsp/dbsearch/PrimarySearch_ki.jsp?energyterm=kJ/mole&tag=r21&monomerid=50424497&enzyme=DNA+repair+protein+RAD51+homolog+1&column=ki&startPg=0&Increment=50&submit=Search

> <Ligand HET ID in PDB>


> <PDB ID(s) for Ligand-Target Complex>


> <PubChem CID of Ligand>
71544714

> <PubChem SID of Ligand>
164153372

> <ChEBI ID of Ligand>


> <ChEMBL ID of Ligand>
CHEMBL2316724

> <DrugBank ID of Ligand>


> <IUPHAR_GRAC ID of Ligand>


> <KEGG ID of Ligand>


> <ZINC ID of Ligand>
ZINC95593634

> <Number of Protein Chains in Target (bigger than 1 implies a multichain complex)>
1

> <BindingDB Target Chain Sequence>
MAMQMQLEANADTSVEEESFGPQPISRLEQCGINANDVKKLEEAGFHTVEAVAYAPKKELINIKGISEAKADKILAEAAKLVPMGFTTATEFHQRRSEIIQITTGSKELDKLLQGGIETGSITEMFGEFRTGKTQICHTLAVTCQLPIDRGGGEGKAMYIDTEGTFRPERLLAVAERYGLSGSDVLDNVAYARAFNTDHQTQLLYQASAMMVESRYALLIVDSATALYRTDYSGRGELSARQMHLARFLRMLLRLADEFGVAVVITNQVVAQVDGAAMFAADPKKPIGGNIIAHASTTRLYLRKGRGETRICKIYDSPCLPEAEAMFAINADGVGDAKD

> <PDB ID(s) of Target Chain>
1N0W,5JZC,5NP7,5NWL,8BQ2,8BR2,8BSC

> <UniProt (SwissProt) Recommended Name of Target Chain>
DNA repair protein RAD51 homolog 1

> <UniProt (SwissProt) Entry Name of Target Chain>
RAD51_HUMAN

> <UniProt (SwissProt) Primary ID of Target Chain>
Q06609

> <UniProt (SwissProt) Secondary ID(s) of Target Chain>
B0FXP0 B2R8T6 Q6FHX9 Q6ZNA8 Q9BV60

> <UniProt (SwissProt) Alternative ID(s) of Target Chain>


> <UniProt (TrEMBL) Submitted Name of Target Chain>


> <UniProt (TrEMBL) Entry Name of Target Chain>


> <UniProt (TrEMBL) Primary ID of Target Chain>


> <UniProt (TrEMBL) Secondary ID(s) of Target Chain>


> <UniProt (TrEMBL) Alternative ID(s) of Target Chain>


$$$$

  Mrv0541 11241415522D          

 26 28  0  0  0  0            999 V2000
   11.3565  -26.0450    0.0000 C   0  0  0  0  0  0  0  0  0  0  0  0
   11.3554  -26.8723    0.0000 C   0  0  0  0  0  0  0  0  0  0  0  0
   12.0701  -27.2851    0.0000 C   0  0  0  0  0  0  0  0  0  0  0  0
   12.7866  -26.8717    0.0000 C   0  0  0  0  0  0  0  0  0  0  0  0
   12.7837  -26.0413    0.0000 C   0  0  0  0  0  0  0  0  0  0  0  0
   12.0683  -25.6322    0.0000 C   0  0  0  0  0  0  0  0  0  0  0  0
   12.0686  -28.1090    0.0000 N   0  0  0  0  0  0  0  0  0  0  0  0
   11.4010  -28.5938    0.0000 C   0  0  0  0  0  0  0  0  0  0  0  0
   11.6558  -29.3785    0.0000 C   0  0  0  0  0  0  0  0  0  0  0  0
   12.4807  -29.3790    0.0000 C   0  0  0  0  0  0  0  0  0  0  0  0
   12.7358  -28.5941    0.0000 C   0  0  0  0  0  0  0  0  0  0  0  0
   13.5205  -28.3393    0.0000 O   0  0  0  0  0  0  0  0  0  0  0  0
   10.6165  -28.3387    0.0000 O   0  0  0  0  0  0  0  0  0  0  0  0
   11.1707  -30.0457    0.0000 Cl  0  0  0  0  0  0  0  0  0  0  0  0
   12.0659  -24.8072    0.0000 Cl  0  0  0  0  0  0  0  0  0  0  0  0
   13.4966  -25.6261    0.0000 Cl  0  0  0  0  0  0  0  0  0  0  0  0
   12.9119  -30.0807    0.0000 C   0  0  0  0  0  0  0  0  0  0  0  0
   12.5164  -30.8060    0.0000 C   0  0  0  0  0  0  0  0  0  0  0  0
   12.9466  -31.5090    0.0000 C   0  0  0  0  0  0  0  0  0  0  0  0
   13.7722  -31.4879    0.0000 C   0  0  0  0  0  0  0  0  0  0  0  0
   14.1657  -30.7580    0.0000 C   0  0  0  0  0  0  0  0  0  0  0  0
   13.7331  -30.0580    0.0000 C   0  0  0  0  0  0  0  0  0  0  0  0
   14.2041  -32.1908    0.0000 C   0  0  0  0  0  0  0  0  0  0  0  0
   13.8114  -32.9163    0.0000 F   0  0  0  0  0  0  0  0  0  0  0  0
   15.0287  -32.1682    0.0000 F   0  0  0  0  0  0  0  0  0  0  0  0
   14.6120  -32.9030    0.0000 F   0  0  0  0  0  0  0  0  0  0  0  0
  1  2  2  0  0  0  0
  2  3  1  0  0  0  0
  3  4  2  0  0  0  0
  4  5  1  0  0  0  0
  5  6  2  0  0  0  0
  6  1  1  0  0  0  0
  7  8  1  0  0  0  0
  8  9  1  0  0  0  0
  9 10  2  0  0  0  0
 10 11  1  0  0  0  0
 11  7  1  0  0  0  0
  3  7  1  0  0  0  0
 11 12  2  0  0  0  0
  8 13  2  0  0  0  0
  9 14  1  0  0  0  0
  6 15  1  0  0  0  0
  5 16  1  0  0  0  0
 17 18  2  0  0  0  0
 18 19  1  0  0  0  0
 19 20  2  0  0  0  0
 20 21  1  0  0  0  0
 21 22  2  0  0  0  0
 22 17  1  0  0  0  0
 10 17  1  0  0  0  0
 20 23  1  0  0  0  0
 23 24  1  0  0  0  0
 23 25  1  0  0  0  0
 23 26  1  0  0  0  0
M  END
> <From>
www.bindingDB.org

> <BindingDB Reactant_set_id>
51040193

> <Ligand InChI>
InChI=1S/C17H7Cl3F3NO2/c18-11-6-5-10(7-12(11)19)24-15(25)13(14(20)16(24)26)8-1-3-9(4-2-8)17(21,22)23/h1-7H

> <Ligand InChI Key>
FGKRMUDQFGRDIW-UHFFFAOYSA-N

> <BindingDB MonomerID>
50424498

> <BindingDB Ligand Name>
CHEMBL2316723

> <Target Name>
DNA repair protein RAD51 homolog 1

> <Target Source Organism According to Curator or DataSource>
Homo sapiens

> <Ki (nM)>


> <IC50 (nM)>
 810

> <Kd (nM)>


> <EC50 (nM)>


> <kon (M-1-s-1)>


> <koff (s-1)>


> <pH>


> <Temp C>


> <Curation/DataSource>
ChEMBL

> <Article DOI>
10.1021/jm301565b

> <BindingDB Entry DOI>
10.7270/Q2VD70R1

> <PMID>
23231413

> <PubChem AID>


> <Patent Number>


> <Authors>
Budke, B; Kalin, JH; Pawlowski, M; Zelivianskaia, AS; Wu, M; Kozikowski, AP; Connell, PP

> <Date of publication>
1/10/2013

> <Date in BindingDB>
9/24/2013

> <Institution>
University of Chicago

> <Link to Ligand in BindingDB>
http://www.bindingdb.org/bind/chemsearch/marvin/MolStructure.jsp?monomerid=50424498

> <Link to Ligand-Target Pair in BindingDB>
http://www.bindingdb.org/jsp/dbsearch/PrimarySearch_ki.jsp?energyterm=kJ/mole&tag=pol&polymerid=4676&target=DNA+repair+protein+RAD51+homolog+1&column=ki&startPg=0&Increment=50&submit=Search

> <Link to Ligand-Target Pair in BindingDB>
http://www.bindingdb.org/jsp/dbsearch/PrimarySearch_ki.jsp?energyterm=kJ/mole&tag=r21&monomerid=50424498&enzyme=DNA+repair+protein+RAD51+homolog+1&column=ki&startPg=0&Increment=50&submit=Search

> <Ligand HET ID in PDB>


> <PDB ID(s) for Ligand-Target Complex>


> <PubChem CID of Ligand>
71547137

> <PubChem SID of Ligand>
164153373

> <ChEBI ID of Ligand>


> <ChEMBL ID of Ligand>
CHEMBL2316723

> <DrugBank ID of Ligand>


> <IUPHAR_GRAC ID of Ligand>


> <KEGG ID of Ligand>


> <ZINC ID of Ligand>
ZINC95594417

> <Number of Protein Chains in Target (bigger than 1 implies a multichain complex)>
1

> <BindingDB Target Chain Sequence>
MAMQMQLEANADTSVEEESFGPQPISRLEQCGINANDVKKLEEAGFHTVEAVAYAPKKELINIKGISEAKADKILAEAAKLVPMGFTTATEFHQRRSEIIQITTGSKELDKLLQGGIETGSITEMFGEFRTGKTQICHTLAVTCQLPIDRGGGEGKAMYIDTEGTFRPERLLAVAERYGLSGSDVLDNVAYARAFNTDHQTQLLYQASAMMVESRYALLIVDSATALYRTDYSGRGELSARQMHLARFLRMLLRLADEFGVAVVITNQVVAQVDGAAMFAADPKKPIGGNIIAHASTTRLYLRKGRGETRICKIYDSPCLPEAEAMFAINADGVGDAKD

> <PDB ID(s) of Target Chain>
1N0W,5JZC,5NP7,5NWL,8BQ2,8BR2,8BSC

> <UniProt (SwissProt) Recommended Name of Target Chain>
DNA repair protein RAD51 homolog 1

> <UniProt (SwissProt) Entry Name of Target Chain>
RAD51_HUMAN

> <UniProt (SwissProt) Primary ID of Target Chain>
Q06609

> <UniProt (SwissProt) Secondary ID(s) of Target Chain>
B0FXP0 B2R8T6 Q6FHX9 Q6ZNA8 Q9BV60

> <UniProt (SwissProt) Alternative ID(s) of Target Chain>


> <UniProt (TrEMBL) Submitted Name of Target Chain>


> <UniProt (TrEMBL) Entry Name of Target Chain>


> <UniProt (TrEMBL) Primary ID of Target Chain>


> <UniProt (TrEMBL) Secondary ID(s) of Target Chain>


> <UniProt (TrEMBL) Alternative ID(s) of Target Chain>


$$$$

  Mrv0541 11241415522D          

 22 24  0  0  0  0            999 V2000
    5.9441  -26.2864    0.0000 C   0  0  0  0  0  0  0  0  0  0  0  0
    5.9430  -27.1139    0.0000 C   0  0  0  0  0  0  0  0  0  0  0  0
    6.6578  -27.5266    0.0000 C   0  0  0  0  0  0  0  0  0  0  0  0
    7.3742  -27.1133    0.0000 C   0  0  0  0  0  0  0  0  0  0  0  0
    7.3714  -26.2828    0.0000 C   0  0  0  0  0  0  0  0  0  0  0  0
    6.6560  -25.8738    0.0000 C   0  0  0  0  0  0  0  0  0  0  0  0
    6.6563  -28.3506    0.0000 N   0  0  0  0  0  0  0  0  0  0  0  0
    5.9888  -28.8354    0.0000 C   0  0  0  0  0  0  0  0  0  0  0  0
    6.2435  -29.6201    0.0000 C   0  0  0  0  0  0  0  0  0  0  0  0
    7.0683  -29.6206    0.0000 C   0  0  0  0  0  0  0  0  0  0  0  0
    7.3235  -28.8357    0.0000 C   0  0  0  0  0  0  0  0  0  0  0  0
    8.1081  -28.5809    0.0000 O   0  0  0  0  0  0  0  0  0  0  0  0
    5.2042  -28.5803    0.0000 O   0  0  0  0  0  0  0  0  0  0  0  0
    5.7583  -30.2873    0.0000 Cl  0  0  0  0  0  0  0  0  0  0  0  0
    6.6535  -25.0488    0.0000 Cl  0  0  0  0  0  0  0  0  0  0  0  0
    8.0842  -25.8677    0.0000 Cl  0  0  0  0  0  0  0  0  0  0  0  0
    7.4995  -30.3223    0.0000 C   0  0  0  0  0  0  0  0  0  0  0  0
    7.1041  -31.0475    0.0000 C   0  0  0  0  0  0  0  0  0  0  0  0
    7.5343  -31.7506    0.0000 C   0  0  0  0  0  0  0  0  0  0  0  0
    8.3599  -31.7295    0.0000 C   0  0  0  0  0  0  0  0  0  0  0  0
    8.7533  -30.9995    0.0000 C   0  0  0  0  0  0  0  0  0  0  0  0
    8.3208  -30.2996    0.0000 C   0  0  0  0  0  0  0  0  0  0  0  0
  1  2  2  0  0  0  0
  2  3  1  0  0  0  0
  3  4  2  0  0  0  0
  4  5  1  0  0  0  0
  5  6  2  0  0  0  0
  6  1  1  0  0  0  0
  7  8  1  0  0  0  0
  8  9  1  0  0  0  0
  9 10  2  0  0  0  0
 10 11  1  0  0  0  0
 11  7  1  0  0  0  0
  3  7  1  0  0  0  0
 11 12  2  0  0  0  0
  8 13  2  0  0  0  0
  9 14  1  0  0  0  0
  6 15  1  0  0  0  0
  5 16  1  0  0  0  0
 17 18  2  0  0  0  0
 18 19  1  0  0  0  0
 19 20  2  0  0  0  0
 20 21  1  0  0  0  0
 21 22  2  0  0  0  0
 22 17  1  0  0  0  0
 10 17  1  0  0  0  0
M  END
> <From>
www.bindingDB.org

> <BindingDB Reactant_set_id>
51040194

> <Ligand InChI>
InChI=1S/C16H8Cl3NO2/c17-11-7-6-10(8-12(11)18)20-15(21)13(14(19)16(20)22)9-4-2-1-3-5-9/h1-8H

> <Ligand InChI Key>
RONMYAFEDUQUDG-UHFFFAOYSA-N

> <BindingDB MonomerID>
50424499

> <BindingDB Ligand Name>
CHEMBL2316722

> <Target Name>
DNA repair protein RAD51 homolog 1

> <Target Source Organism According to Curator or DataSource>
Homo sapiens

> <Ki (nM)>


> <IC50 (nM)>
 930

> <Kd (nM)>


> <EC50 (nM)>


> <kon (M-1-s-1)>


> <koff (s-1)>


> <pH>


> <Temp C>


> <Curation/DataSource>
ChEMBL

> <Article DOI>
10.1021/jm301565b

> <BindingDB Entry DOI>
10.7270/Q2VD70R1

> <PMID>
23231413

> <PubChem AID>


> <Patent Number>


> <Authors>
Budke, B; Kalin, JH; Pawlowski, M; Zelivianskaia, AS; Wu, M; Kozikowski, AP; Connell, PP

> <Date of publication>
1/10/2013

> <Date in BindingDB>
9/24/2013

> <Institution>
University of Chicago

> <Link to Ligand in BindingDB>
http://www.bindingdb.org/bind/chemsearch/marvin/MolStructure.jsp?monomerid=50424499

> <Link to Ligand-Target Pair in BindingDB>
http://www.bindingdb.org/jsp/dbsearch/PrimarySearch_ki.jsp?energyterm=kJ/mole&tag=pol&polymerid=4676&target=DNA+repair+protein+RAD51+homolog+1&column=ki&startPg=0&Increment=50&submit=Search

> <Link to Ligand-Target Pair in BindingDB>
http://www.bindingdb.org/jsp/dbsearch/PrimarySearch_ki.jsp?energyterm=kJ/mole&tag=r21&monomerid=50424499&enzyme=DNA+repair+protein+RAD51+homolog+1&column=ki&startPg=0&Increment=50&submit=Search

> <Ligand HET ID in PDB>


> <PDB ID(s) for Ligand-Target Complex>


> <PubChem CID of Ligand>
71547136

> <PubChem SID of Ligand>
164153374

> <ChEBI ID of Ligand>


> <ChEMBL ID of Ligand>
CHEMBL2316722

> <DrugBank ID of Ligand>


> <IUPHAR_GRAC ID of Ligand>


> <KEGG ID of Ligand>


> <ZINC ID of Ligand>
ZINC95593108

> <Number of Protein Chains in Target (bigger than 1 implies a multichain complex)>
1

> <BindingDB Target Chain Sequence>
MAMQMQLEANADTSVEEESFGPQPISRLEQCGINANDVKKLEEAGFHTVEAVAYAPKKELINIKGISEAKADKILAEAAKLVPMGFTTATEFHQRRSEIIQITTGSKELDKLLQGGIETGSITEMFGEFRTGKTQICHTLAVTCQLPIDRGGGEGKAMYIDTEGTFRPERLLAVAERYGLSGSDVLDNVAYARAFNTDHQTQLLYQASAMMVESRYALLIVDSATALYRTDYSGRGELSARQMHLARFLRMLLRLADEFGVAVVITNQVVAQVDGAAMFAADPKKPIGGNIIAHASTTRLYLRKGRGETRICKIYDSPCLPEAEAMFAINADGVGDAKD

> <PDB ID(s) of Target Chain>
1N0W,5JZC,5NP7,5NWL,8BQ2,8BR2,8BSC

> <UniProt (SwissProt) Recommended Name of Target Chain>
DNA repair protein RAD51 homolog 1

> <UniProt (SwissProt) Entry Name of Target Chain>
RAD51_HUMAN

> <UniProt (SwissProt) Primary ID of Target Chain>
Q06609

> <UniProt (SwissProt) Secondary ID(s) of Target Chain>
B0FXP0 B2R8T6 Q6FHX9 Q6ZNA8 Q9BV60

> <UniProt (SwissProt) Alternative ID(s) of Target Chain>


> <UniProt (TrEMBL) Submitted Name of Target Chain>


> <UniProt (TrEMBL) Entry Name of Target Chain>


> <UniProt (TrEMBL) Primary ID of Target Chain>


> <UniProt (TrEMBL) Secondary ID(s) of Target Chain>


> <UniProt (TrEMBL) Alternative ID(s) of Target Chain>


$$$$

  Mrv0541 11241415522D          

 23 25  0  0  0  0            999 V2000
    1.7737  -26.2677    0.0000 C   0  0  0  0  0  0  0  0  0  0  0  0
    1.7725  -27.0951    0.0000 C   0  0  0  0  0  0  0  0  0  0  0  0
    2.4873  -27.5080    0.0000 C   0  0  0  0  0  0  0  0  0  0  0  0
    3.2038  -27.0947    0.0000 C   0  0  0  0  0  0  0  0  0  0  0  0
    3.2009  -26.2641    0.0000 C   0  0  0  0  0  0  0  0  0  0  0  0
    2.4855  -25.8549    0.0000 C   0  0  0  0  0  0  0  0  0  0  0  0
    2.4857  -28.3320    0.0000 N   0  0  0  0  0  0  0  0  0  0  0  0
    1.8182  -28.8169    0.0000 C   0  0  0  0  0  0  0  0  0  0  0  0
    2.0730  -29.6015    0.0000 C   0  0  0  0  0  0  0  0  0  0  0  0
    2.8979  -29.6021    0.0000 C   0  0  0  0  0  0  0  0  0  0  0  0
    3.1531  -28.8172    0.0000 C   0  0  0  0  0  0  0  0  0  0  0  0
    3.9377  -28.5623    0.0000 O   0  0  0  0  0  0  0  0  0  0  0  0
    1.0336  -28.5617    0.0000 O   0  0  0  0  0  0  0  0  0  0  0  0
    1.5878  -30.2689    0.0000 Cl  0  0  0  0  0  0  0  0  0  0  0  0
    2.4831  -25.0300    0.0000 Cl  0  0  0  0  0  0  0  0  0  0  0  0
    3.9139  -25.8489    0.0000 Cl  0  0  0  0  0  0  0  0  0  0  0  0
    3.3290  -30.3038    0.0000 C   0  0  0  0  0  0  0  0  0  0  0  0
    2.9336  -31.0292    0.0000 C   0  0  0  0  0  0  0  0  0  0  0  0
    3.3639  -31.7322    0.0000 C   0  0  0  0  0  0  0  0  0  0  0  0
    4.1895  -31.7112    0.0000 C   0  0  0  0  0  0  0  0  0  0  0  0
    4.5830  -30.9811    0.0000 C   0  0  0  0  0  0  0  0  0  0  0  0
    4.1505  -30.2811    0.0000 C   0  0  0  0  0  0  0  0  0  0  0  0
    4.6214  -32.4140    0.0000 N   0  0  0  0  0  0  0  0  0  0  0  0
  1  2  2  0  0  0  0
  2  3  1  0  0  0  0
  3  4  2  0  0  0  0
  4  5  1  0  0  0  0
  5  6  2  0  0  0  0
  6  1  1  0  0  0  0
  7  8  1  0  0  0  0
  8  9  1  0  0  0  0
  9 10  2  0  0  0  0
 10 11  1  0  0  0  0
 11  7  1  0  0  0  0
  3  7  1  0  0  0  0
 11 12  2  0  0  0  0
  8 13  2  0  0  0  0
  9 14  1  0  0  0  0
  6 15  1  0  0  0  0
  5 16  1  0  0  0  0
 17 18  2  0  0  0  0
 18 19  1  0  0  0  0
 19 20  2  0  0  0  0
 20 21  1  0  0  0  0
 21 22  2  0  0  0  0
 22 17  1  0  0  0  0
 10 17  1  0  0  0  0
 20 23  1  0  0  0  0
M  END
> <From>
www.bindingDB.org

> <BindingDB Reactant_set_id>
51040195

> <Ligand InChI>
InChI=1S/C16H9Cl3N2O2/c17-11-6-5-10(7-12(11)18)21-15(22)13(14(19)16(21)23)8-1-3-9(20)4-2-8/h1-7H,20H2

> <Ligand InChI Key>
JKOKOTLTKNIVJK-UHFFFAOYSA-N

> <BindingDB MonomerID>
50424500

> <BindingDB Ligand Name>
CHEMBL2316721

> <Target Name>
DNA repair protein RAD51 homolog 1

> <Target Source Organism According to Curator or DataSource>
Homo sapiens

> <Ki (nM)>


> <IC50 (nM)>
 1400

> <Kd (nM)>


> <EC50 (nM)>


> <kon (M-1-s-1)>


> <koff (s-1)>


> <pH>


> <Temp C>


> <Curation/DataSource>
ChEMBL

> <Article DOI>
10.1021/jm301565b

> <BindingDB Entry DOI>
10.7270/Q2VD70R1

> <PMID>
23231413

> <PubChem AID>


> <Patent Number>


> <Authors>
Budke, B; Kalin, JH; Pawlowski, M; Zelivianskaia, AS; Wu, M; Kozikowski, AP; Connell, PP

> <Date of publication>
1/10/2013

> <Date in BindingDB>
9/24/2013

> <Institution>
University of Chicago

> <Link to Ligand in BindingDB>
http://www.bindingdb.org/bind/chemsearch/marvin/MolStructure.jsp?monomerid=50424500

> <Link to Ligand-Target Pair in BindingDB>
http://www.bindingdb.org/jsp/dbsearch/PrimarySearch_ki.jsp?energyterm=kJ/mole&tag=pol&polymerid=4676&target=DNA+repair+protein+RAD51+homolog+1&column=ki&startPg=0&Increment=50&submit=Search

> <Link to Ligand-Target Pair in BindingDB>
http://www.bindingdb.org/jsp/dbsearch/PrimarySearch_ki.jsp?energyterm=kJ/mole&tag=r21&monomerid=50424500&enzyme=DNA+repair+protein+RAD51+homolog+1&column=ki&startPg=0&Increment=50&submit=Search

> <Ligand HET ID in PDB>


> <PDB ID(s) for Ligand-Target Complex>


> <PubChem CID of Ligand>
71546993

> <PubChem SID of Ligand>
164153375

> <ChEBI ID of Ligand>


> <ChEMBL ID of Ligand>
CHEMBL2316721

> <DrugBank ID of Ligand>


> <IUPHAR_GRAC ID of Ligand>


> <KEGG ID of Ligand>


> <ZINC ID of Ligand>
ZINC95595083

> <Number of Protein Chains in Target (bigger than 1 implies a multichain complex)>
1

> <BindingDB Target Chain Sequence>
MAMQMQLEANADTSVEEESFGPQPISRLEQCGINANDVKKLEEAGFHTVEAVAYAPKKELINIKGISEAKADKILAEAAKLVPMGFTTATEFHQRRSEIIQITTGSKELDKLLQGGIETGSITEMFGEFRTGKTQICHTLAVTCQLPIDRGGGEGKAMYIDTEGTFRPERLLAVAERYGLSGSDVLDNVAYARAFNTDHQTQLLYQASAMMVESRYALLIVDSATALYRTDYSGRGELSARQMHLARFLRMLLRLADEFGVAVVITNQVVAQVDGAAMFAADPKKPIGGNIIAHASTTRLYLRKGRGETRICKIYDSPCLPEAEAMFAINADGVGDAKD

> <PDB ID(s) of Target Chain>
1N0W,5JZC,5NP7,5NWL,8BQ2,8BR2,8BSC

> <UniProt (SwissProt) Recommended Name of Target Chain>
DNA repair protein RAD51 homolog 1

> <UniProt (SwissProt) Entry Name of Target Chain>
RAD51_HUMAN

> <UniProt (SwissProt) Primary ID of Target Chain>
Q06609

> <UniProt (SwissProt) Secondary ID(s) of Target Chain>
B0FXP0 B2R8T6 Q6FHX9 Q6ZNA8 Q9BV60

> <UniProt (SwissProt) Alternative ID(s) of Target Chain>


> <UniProt (TrEMBL) Submitted Name of Target Chain>


> <UniProt (TrEMBL) Entry Name of Target Chain>


> <UniProt (TrEMBL) Primary ID of Target Chain>


> <UniProt (TrEMBL) Secondary ID(s) of Target Chain>


> <UniProt (TrEMBL) Alternative ID(s) of Target Chain>


$$$$

  Mrv0541 11241415522D          

 26 28  0  0  0  0            999 V2000
   20.0768  -17.6575    0.0000 C   0  0  0  0  0  0  0  0  0  0  0  0
   20.0757  -18.4848    0.0000 C   0  0  0  0  0  0  0  0  0  0  0  0
   20.7904  -18.8977    0.0000 C   0  0  0  0  0  0  0  0  0  0  0  0
   21.5068  -18.4843    0.0000 C   0  0  0  0  0  0  0  0  0  0  0  0
   21.5039  -17.6538    0.0000 C   0  0  0  0  0  0  0  0  0  0  0  0
   20.7886  -17.2447    0.0000 C   0  0  0  0  0  0  0  0  0  0  0  0
   20.7888  -19.7215    0.0000 N   0  0  0  0  0  0  0  0  0  0  0  0
   20.1213  -20.2063    0.0000 C   0  0  0  0  0  0  0  0  0  0  0  0
   20.3761  -20.9910    0.0000 C   0  0  0  0  0  0  0  0  0  0  0  0
   21.2010  -20.9915    0.0000 C   0  0  0  0  0  0  0  0  0  0  0  0
   21.4561  -20.2066    0.0000 C   0  0  0  0  0  0  0  0  0  0  0  0
   22.2407  -19.9518    0.0000 O   0  0  0  0  0  0  0  0  0  0  0  0
   19.3368  -19.9512    0.0000 O   0  0  0  0  0  0  0  0  0  0  0  0
   19.8909  -21.6582    0.0000 Cl  0  0  0  0  0  0  0  0  0  0  0  0
   20.7861  -16.4197    0.0000 Cl  0  0  0  0  0  0  0  0  0  0  0  0
   22.2168  -17.2386    0.0000 Cl  0  0  0  0  0  0  0  0  0  0  0  0
   21.6321  -21.6932    0.0000 C   0  0  0  0  0  0  0  0  0  0  0  0
   21.2366  -22.4184    0.0000 C   0  0  0  0  0  0  0  0  0  0  0  0
   21.6668  -23.1214    0.0000 C   0  0  0  0  0  0  0  0  0  0  0  0
   22.4924  -23.1003    0.0000 C   0  0  0  0  0  0  0  0  0  0  0  0
   22.8859  -22.3705    0.0000 C   0  0  0  0  0  0  0  0  0  0  0  0
   22.4533  -21.6705    0.0000 C   0  0  0  0  0  0  0  0  0  0  0  0
   22.9243  -23.8033    0.0000 O   0  0  0  0  0  0  0  0  0  0  0  0
   22.5316  -24.5287    0.0000 C   0  0  0  0  0  0  0  0  0  0  0  0
   21.2727  -23.8462    0.0000 O   0  0  0  0  0  0  0  0  0  0  0  0
   20.4481  -23.8673    0.0000 C   0  0  0  0  0  0  0  0  0  0  0  0
  1  2  2  0  0  0  0
  2  3  1  0  0  0  0
  3  4  2  0  0  0  0
  4  5  1  0  0  0  0
  5  6  2  0  0  0  0
  6  1  1  0  0  0  0
  7  8  1  0  0  0  0
  8  9  1  0  0  0  0
  9 10  2  0  0  0  0
 10 11  1  0  0  0  0
 11  7  1  0  0  0  0
  3  7  1  0  0  0  0
 11 12  2  0  0  0  0
  8 13  2  0  0  0  0
  9 14  1  0  0  0  0
  6 15  1  0  0  0  0
  5 16  1  0  0  0  0
 17 18  2  0  0  0  0
 18 19  1  0  0  0  0
 19 20  2  0  0  0  0
 20 21  1  0  0  0  0
 21 22  2  0  0  0  0
 22 17  1  0  0  0  0
 10 17  1  0  0  0  0
 20 23  1  0  0  0  0
 23 24  1  0  0  0  0
 19 25  1  0  0  0  0
 25 26  1  0  0  0  0
M  END
> <From>
www.bindingDB.org

> <BindingDB Reactant_set_id>
51040196

> <Ligand InChI>
InChI=1S/C18H12Cl3NO4/c1-25-13-6-3-9(7-14(13)26-2)15-16(21)18(24)22(17(15)23)10-4-5-11(19)12(20)8-10/h3-8H,1-2H3

> <Ligand InChI Key>
KCDALOFCIDDVIW-UHFFFAOYSA-N

> <BindingDB MonomerID>
50424501

> <BindingDB Ligand Name>
CHEMBL2316720

> <Target Name>
DNA repair protein RAD51 homolog 1

> <Target Source Organism According to Curator or DataSource>
Homo sapiens

> <Ki (nM)>


> <IC50 (nM)>
 2140

> <Kd (nM)>


> <EC50 (nM)>


> <kon (M-1-s-1)>


> <koff (s-1)>


> <pH>


> <Temp C>


> <Curation/DataSource>
ChEMBL

> <Article DOI>
10.1021/jm301565b

> <BindingDB Entry DOI>
10.7270/Q2VD70R1

> <PMID>
23231413

> <PubChem AID>


> <Patent Number>


> <Authors>
Budke, B; Kalin, JH; Pawlowski, M; Zelivianskaia, AS; Wu, M; Kozikowski, AP; Connell, PP

> <Date of publication>
1/10/2013

> <Date in BindingDB>
9/24/2013

> <Institution>
University of Chicago

> <Link to Ligand in BindingDB>
http://www.bindingdb.org/bind/chemsearch/marvin/MolStructure.jsp?monomerid=50424501

> <Link to Ligand-Target Pair in BindingDB>
http://www.bindingdb.org/jsp/dbsearch/PrimarySearch_ki.jsp?energyterm=kJ/mole&tag=pol&polymerid=4676&target=DNA+repair+protein+RAD51+homolog+1&column=ki&startPg=0&Increment=50&submit=Search

> <Link to Ligand-Target Pair in BindingDB>
http://www.bindingdb.org/jsp/dbsearch/PrimarySearch_ki.jsp?energyterm=kJ/mole&tag=r21&monomerid=50424501&enzyme=DNA+repair+protein+RAD51+homolog+1&column=ki&startPg=0&Increment=50&submit=Search

> <Ligand HET ID in PDB>


> <PDB ID(s) for Ligand-Target Complex>


> <PubChem CID of Ligand>
71546992

> <PubChem SID of Ligand>
164153376

> <ChEBI ID of Ligand>


> <ChEMBL ID of Ligand>
CHEMBL2316720

> <DrugBank ID of Ligand>


> <IUPHAR_GRAC ID of Ligand>


> <KEGG ID of Ligand>


> <ZINC ID of Ligand>
ZINC95594944

> <Number of Protein Chains in Target (bigger than 1 implies a multichain complex)>
1

> <BindingDB Target Chain Sequence>
MAMQMQLEANADTSVEEESFGPQPISRLEQCGINANDVKKLEEAGFHTVEAVAYAPKKELINIKGISEAKADKILAEAAKLVPMGFTTATEFHQRRSEIIQITTGSKELDKLLQGGIETGSITEMFGEFRTGKTQICHTLAVTCQLPIDRGGGEGKAMYIDTEGTFRPERLLAVAERYGLSGSDVLDNVAYARAFNTDHQTQLLYQASAMMVESRYALLIVDSATALYRTDYSGRGELSARQMHLARFLRMLLRLADEFGVAVVITNQVVAQVDGAAMFAADPKKPIGGNIIAHASTTRLYLRKGRGETRICKIYDSPCLPEAEAMFAINADGVGDAKD

> <PDB ID(s) of Target Chain>
1N0W,5JZC,5NP7,5NWL,8BQ2,8BR2,8BSC

> <UniProt (SwissProt) Recommended Name of Target Chain>
DNA repair protein RAD51 homolog 1

> <UniProt (SwissProt) Entry Name of Target Chain>
RAD51_HUMAN

> <UniProt (SwissProt) Primary ID of Target Chain>
Q06609

> <UniProt (SwissProt) Secondary ID(s) of Target Chain>
B0FXP0 B2R8T6 Q6FHX9 Q6ZNA8 Q9BV60

> <UniProt (SwissProt) Alternative ID(s) of Target Chain>


> <UniProt (TrEMBL) Submitted Name of Target Chain>


> <UniProt (TrEMBL) Entry Name of Target Chain>


> <UniProt (TrEMBL) Primary ID of Target Chain>


> <UniProt (TrEMBL) Secondary ID(s) of Target Chain>


> <UniProt (TrEMBL) Alternative ID(s) of Target Chain>


$$$$

  Mrv0541 11241415522D          

 25 27  0  0  0  0            999 V2000
   15.3025  -17.0955    0.0000 C   0  0  0  0  0  0  0  0  0  0  0  0
   15.3013  -17.9229    0.0000 C   0  0  0  0  0  0  0  0  0  0  0  0
   16.0161  -18.3358    0.0000 C   0  0  0  0  0  0  0  0  0  0  0  0
   16.7326  -17.9224    0.0000 C   0  0  0  0  0  0  0  0  0  0  0  0
   16.7297  -17.0919    0.0000 C   0  0  0  0  0  0  0  0  0  0  0  0
   16.0143  -16.6827    0.0000 C   0  0  0  0  0  0  0  0  0  0  0  0
   16.0145  -19.1596    0.0000 N   0  0  0  0  0  0  0  0  0  0  0  0
   15.3470  -19.6444    0.0000 C   0  0  0  0  0  0  0  0  0  0  0  0
   15.6018  -20.4291    0.0000 C   0  0  0  0  0  0  0  0  0  0  0  0
   16.4267  -20.4297    0.0000 C   0  0  0  0  0  0  0  0  0  0  0  0
   16.6818  -19.6447    0.0000 C   0  0  0  0  0  0  0  0  0  0  0  0
   17.4664  -19.3900    0.0000 O   0  0  0  0  0  0  0  0  0  0  0  0
   14.5625  -19.3893    0.0000 O   0  0  0  0  0  0  0  0  0  0  0  0
   15.1166  -21.0963    0.0000 Cl  0  0  0  0  0  0  0  0  0  0  0  0
   16.0119  -15.8577    0.0000 Cl  0  0  0  0  0  0  0  0  0  0  0  0
   17.4426  -16.6767    0.0000 Cl  0  0  0  0  0  0  0  0  0  0  0  0
   16.8579  -21.1314    0.0000 C   0  0  0  0  0  0  0  0  0  0  0  0
   16.4624  -21.8567    0.0000 C   0  0  0  0  0  0  0  0  0  0  0  0
   16.8926  -22.5597    0.0000 C   0  0  0  0  0  0  0  0  0  0  0  0
   17.7182  -22.5387    0.0000 C   0  0  0  0  0  0  0  0  0  0  0  0
   18.1117  -21.8087    0.0000 C   0  0  0  0  0  0  0  0  0  0  0  0
   17.6792  -21.1087    0.0000 C   0  0  0  0  0  0  0  0  0  0  0  0
   18.1501  -23.2415    0.0000 N   0  0  0  0  0  0  0  0  0  0  0  0
   17.7574  -23.9670    0.0000 C   0  0  0  0  0  0  0  0  0  0  0  0
   18.9748  -23.2190    0.0000 C   0  0  0  0  0  0  0  0  0  0  0  0
  1  2  2  0  0  0  0
  2  3  1  0  0  0  0
  3  4  2  0  0  0  0
  4  5  1  0  0  0  0
  5  6  2  0  0  0  0
  6  1  1  0  0  0  0
  7  8  1  0  0  0  0
  8  9  1  0  0  0  0
  9 10  2  0  0  0  0
 10 11  1  0  0  0  0
 11  7  1  0  0  0  0
  3  7  1  0  0  0  0
 11 12  2  0  0  0  0
  8 13  2  0  0  0  0
  9 14  1  0  0  0  0
  6 15  1  0  0  0  0
  5 16  1  0  0  0  0
 17 18  2  0  0  0  0
 18 19  1  0  0  0  0
 19 20  2  0  0  0  0
 20 21  1  0  0  0  0
 21 22  2  0  0  0  0
 22 17  1  0  0  0  0
 10 17  1  0  0  0  0
 20 23  1  0  0  0  0
 23 24  1  0  0  0  0
 23 25  1  0  0  0  0
M  END
> <From>
www.bindingDB.org

> <BindingDB Reactant_set_id>
51040197

> <Ligand InChI>
InChI=1S/C18H13Cl3N2O2/c1-22(2)11-5-3-10(4-6-11)15-16(21)18(25)23(17(15)24)12-7-8-13(19)14(20)9-12/h3-9H,1-2H3

> <Ligand InChI Key>
VMEWEHODLARPJN-UHFFFAOYSA-N

> <BindingDB MonomerID>
50424502

> <BindingDB Ligand Name>
CHEMBL2316719

> <Target Name>
DNA repair protein RAD51 homolog 1

> <Target Source Organism According to Curator or DataSource>
Homo sapiens

> <Ki (nM)>


> <IC50 (nM)>
 15620

> <Kd (nM)>


> <EC50 (nM)>


> <kon (M-1-s-1)>


> <koff (s-1)>


> <pH>


> <Temp C>


> <Curation/DataSource>
ChEMBL

> <Article DOI>
10.1021/jm301565b

> <BindingDB Entry DOI>
10.7270/Q2VD70R1

> <PMID>
23231413

> <PubChem AID>


> <Patent Number>


> <Authors>
Budke, B; Kalin, JH; Pawlowski, M; Zelivianskaia, AS; Wu, M; Kozikowski, AP; Connell, PP

> <Date of publication>
1/10/2013

> <Date in BindingDB>
9/24/2013

> <Institution>
University of Chicago

> <Link to Ligand in BindingDB>
http://www.bindingdb.org/bind/chemsearch/marvin/MolStructure.jsp?monomerid=50424502

> <Link to Ligand-Target Pair in BindingDB>
http://www.bindingdb.org/jsp/dbsearch/PrimarySearch_ki.jsp?energyterm=kJ/mole&tag=pol&polymerid=4676&target=DNA+repair+protein+RAD51+homolog+1&column=ki&startPg=0&Increment=50&submit=Search

> <Link to Ligand-Target Pair in BindingDB>
http://www.bindingdb.org/jsp/dbsearch/PrimarySearch_ki.jsp?energyterm=kJ/mole&tag=r21&monomerid=50424502&enzyme=DNA+repair+protein+RAD51+homolog+1&column=ki&startPg=0&Increment=50&submit=Search

> <Ligand HET ID in PDB>


> <PDB ID(s) for Ligand-Target Complex>


> <PubChem CID of Ligand>
71546991

> <PubChem SID of Ligand>
164153377

> <ChEBI ID of Ligand>


> <ChEMBL ID of Ligand>
CHEMBL2316719

> <DrugBank ID of Ligand>


> <IUPHAR_GRAC ID of Ligand>


> <KEGG ID of Ligand>


> <ZINC ID of Ligand>
ZINC95598386

> <Number of Protein Chains in Target (bigger than 1 implies a multichain complex)>
1

> <BindingDB Target Chain Sequence>
MAMQMQLEANADTSVEEESFGPQPISRLEQCGINANDVKKLEEAGFHTVEAVAYAPKKELINIKGISEAKADKILAEAAKLVPMGFTTATEFHQRRSEIIQITTGSKELDKLLQGGIETGSITEMFGEFRTGKTQICHTLAVTCQLPIDRGGGEGKAMYIDTEGTFRPERLLAVAERYGLSGSDVLDNVAYARAFNTDHQTQLLYQASAMMVESRYALLIVDSATALYRTDYSGRGELSARQMHLARFLRMLLRLADEFGVAVVITNQVVAQVDGAAMFAADPKKPIGGNIIAHASTTRLYLRKGRGETRICKIYDSPCLPEAEAMFAINADGVGDAKD

> <PDB ID(s) of Target Chain>
1N0W,5JZC,5NP7,5NWL,8BQ2,8BR2,8BSC

> <UniProt (SwissProt) Recommended Name of Target Chain>
DNA repair protein RAD51 homolog 1

> <UniProt (SwissProt) Entry Name of Target Chain>
RAD51_HUMAN

> <UniProt (SwissProt) Primary ID of Target Chain>
Q06609

> <UniProt (SwissProt) Secondary ID(s) of Target Chain>
B0FXP0 B2R8T6 Q6FHX9 Q6ZNA8 Q9BV60

> <UniProt (SwissProt) Alternative ID(s) of Target Chain>


> <UniProt (TrEMBL) Submitted Name of Target Chain>


> <UniProt (TrEMBL) Entry Name of Target Chain>


> <UniProt (TrEMBL) Primary ID of Target Chain>


> <UniProt (TrEMBL) Secondary ID(s) of Target Chain>


> <UniProt (TrEMBL) Alternative ID(s) of Target Chain>


$$$$

  Mrv0541 11241415522D          

 24 26  0  0  0  0            999 V2000
    6.3064  -16.8779    0.0000 C   0  0  0  0  0  0  0  0  0  0  0  0
    6.3053  -17.7052    0.0000 C   0  0  0  0  0  0  0  0  0  0  0  0
    7.0200  -18.1181    0.0000 C   0  0  0  0  0  0  0  0  0  0  0  0
    7.7365  -17.7047    0.0000 C   0  0  0  0  0  0  0  0  0  0  0  0
    7.7335  -16.8743    0.0000 C   0  0  0  0  0  0  0  0  0  0  0  0
    7.0182  -16.4651    0.0000 C   0  0  0  0  0  0  0  0  0  0  0  0
    7.0185  -18.9419    0.0000 N   0  0  0  0  0  0  0  0  0  0  0  0
    6.3509  -19.4266    0.0000 C   0  0  0  0  0  0  0  0  0  0  0  0
    6.6057  -20.2113    0.0000 C   0  0  0  0  0  0  0  0  0  0  0  0
    7.4306  -20.2119    0.0000 C   0  0  0  0  0  0  0  0  0  0  0  0
    7.6857  -19.4269    0.0000 C   0  0  0  0  0  0  0  0  0  0  0  0
    8.4703  -19.1722    0.0000 O   0  0  0  0  0  0  0  0  0  0  0  0
    5.5665  -19.1715    0.0000 O   0  0  0  0  0  0  0  0  0  0  0  0
    6.1206  -20.8785    0.0000 Cl  0  0  0  0  0  0  0  0  0  0  0  0
    7.0158  -15.6402    0.0000 Cl  0  0  0  0  0  0  0  0  0  0  0  0
    8.4464  -16.4591    0.0000 Cl  0  0  0  0  0  0  0  0  0  0  0  0
    7.8255  -20.9346    0.0000 C   0  0  0  0  0  0  0  0  0  0  0  0
    7.3937  -21.6388    0.0000 C   0  0  0  0  0  0  0  0  0  0  0  0
    7.7877  -22.3627    0.0000 C   0  0  0  0  0  0  0  0  0  0  0  0
    8.6133  -22.3836    0.0000 C   0  0  0  0  0  0  0  0  0  0  0  0
    9.0432  -21.6746    0.0000 C   0  0  0  0  0  0  0  0  0  0  0  0
    8.6468  -20.9536    0.0000 C   0  0  0  0  0  0  0  0  0  0  0  0
    9.0089  -23.1075    0.0000 O   0  0  0  0  0  0  0  0  0  0  0  0
    8.5799  -23.8120    0.0000 C   0  0  0  0  0  0  0  0  0  0  0  0
  1  2  2  0  0  0  0
  2  3  1  0  0  0  0
  3  4  2  0  0  0  0
  4  5  1  0  0  0  0
  5  6  2  0  0  0  0
  6  1  1  0  0  0  0
  7  8  1  0  0  0  0
  8  9  1  0  0  0  0
  9 10  2  0  0  0  0
 10 11  1  0  0  0  0
 11  7  1  0  0  0  0
  3  7  1  0  0  0  0
 11 12  2  0  0  0  0
  8 13  2  0  0  0  0
  9 14  1  0  0  0  0
  6 15  1  0  0  0  0
  5 16  1  0  0  0  0
 17 18  2  0  0  0  0
 18 19  1  0  0  0  0
 19 20  2  0  0  0  0
 20 21  1  0  0  0  0
 21 22  2  0  0  0  0
 22 17  1  0  0  0  0
 10 17  1  0  0  0  0
 20 23  1  0  0  0  0
 23 24  1  0  0  0  0
M  END
> <From>
www.bindingDB.org

> <BindingDB Reactant_set_id>
51040198

> <Ligand InChI>
InChI=1S/C17H10Cl3NO3/c1-24-11-5-2-9(3-6-11)14-15(20)17(23)21(16(14)22)10-4-7-12(18)13(19)8-10/h2-8H,1H3

> <Ligand InChI Key>
FNKBEGHNLRZRKZ-UHFFFAOYSA-N

> <BindingDB MonomerID>
50424503

> <BindingDB Ligand Name>
CHEMBL2316739

> <Target Name>
DNA repair protein RAD51 homolog 1

> <Target Source Organism According to Curator or DataSource>
Homo sapiens

> <Ki (nM)>


> <IC50 (nM)>
 5290

> <Kd (nM)>


> <EC50 (nM)>


> <kon (M-1-s-1)>


> <koff (s-1)>


> <pH>


> <Temp C>


> <Curation/DataSource>
ChEMBL

> <Article DOI>
10.1021/jm301565b

> <BindingDB Entry DOI>
10.7270/Q2VD70R1

> <PMID>
23231413

> <PubChem AID>


> <Patent Number>


> <Authors>
Budke, B; Kalin, JH; Pawlowski, M; Zelivianskaia, AS; Wu, M; Kozikowski, AP; Connell, PP

> <Date of publication>
1/10/2013

> <Date in BindingDB>
9/24/2013

> <Institution>
University of Chicago

> <Link to Ligand in BindingDB>
http://www.bindingdb.org/bind/chemsearch/marvin/MolStructure.jsp?monomerid=50424503

> <Link to Ligand-Target Pair in BindingDB>
http://www.bindingdb.org/jsp/dbsearch/PrimarySearch_ki.jsp?energyterm=kJ/mole&tag=pol&polymerid=4676&target=DNA+repair+protein+RAD51+homolog+1&column=ki&startPg=0&Increment=50&submit=Search

> <Link to Ligand-Target Pair in BindingDB>
http://www.bindingdb.org/jsp/dbsearch/PrimarySearch_ki.jsp?energyterm=kJ/mole&tag=r21&monomerid=50424503&enzyme=DNA+repair+protein+RAD51+homolog+1&column=ki&startPg=0&Increment=50&submit=Search

> <Ligand HET ID in PDB>


> <PDB ID(s) for Ligand-Target Complex>


> <PubChem CID of Ligand>
71546989

> <PubChem SID of Ligand>
164153378

> <ChEBI ID of Ligand>


> <ChEMBL ID of Ligand>
CHEMBL2316739

> <DrugBank ID of Ligand>


> <IUPHAR_GRAC ID of Ligand>


> <KEGG ID of Ligand>


> <ZINC ID of Ligand>
ZINC95594507

> <Number of Protein Chains in Target (bigger than 1 implies a multichain complex)>
1

> <BindingDB Target Chain Sequence>
MAMQMQLEANADTSVEEESFGPQPISRLEQCGINANDVKKLEEAGFHTVEAVAYAPKKELINIKGISEAKADKILAEAAKLVPMGFTTATEFHQRRSEIIQITTGSKELDKLLQGGIETGSITEMFGEFRTGKTQICHTLAVTCQLPIDRGGGEGKAMYIDTEGTFRPERLLAVAERYGLSGSDVLDNVAYARAFNTDHQTQLLYQASAMMVESRYALLIVDSATALYRTDYSGRGELSARQMHLARFLRMLLRLADEFGVAVVITNQVVAQVDGAAMFAADPKKPIGGNIIAHASTTRLYLRKGRGETRICKIYDSPCLPEAEAMFAINADGVGDAKD

> <PDB ID(s) of Target Chain>
1N0W,5JZC,5NP7,5NWL,8BQ2,8BR2,8BSC

> <UniProt (SwissProt) Recommended Name of Target Chain>
DNA repair protein RAD51 homolog 1

> <UniProt (SwissProt) Entry Name of Target Chain>
RAD51_HUMAN

> <UniProt (SwissProt) Primary ID of Target Chain>
Q06609

> <UniProt (SwissProt) Secondary ID(s) of Target Chain>
B0FXP0 B2R8T6 Q6FHX9 Q6ZNA8 Q9BV60

> <UniProt (SwissProt) Alternative ID(s) of Target Chain>


> <UniProt (TrEMBL) Submitted Name of Target Chain>


> <UniProt (TrEMBL) Entry Name of Target Chain>


> <UniProt (TrEMBL) Primary ID of Target Chain>


> <UniProt (TrEMBL) Secondary ID(s) of Target Chain>


> <UniProt (TrEMBL) Alternative ID(s) of Target Chain>


$$$$
1180676
  Mrv0541 11251415342D          

 23 25  0  0  0  0            999 V2000
    2.2047    1.6173    0.0000 Cl  0  0  0  0  0  0  0  0  0  0  0  0
    1.6731   -2.7946    0.0000 Cl  0  0  0  0  0  0  0  0  0  0  0  0
    3.1021   -3.6196    0.0000 Cl  0  0  0  0  0  0  0  0  0  0  0  0
    4.5542   -0.0897    0.0000 O   0  0  0  0  0  0  0  0  0  0  0  0
    1.6500   -0.0897    0.0000 O   0  0  0  0  0  0  0  0  0  0  0  0
    3.9995    1.6173    0.0000 N   0  0  0  0  0  0  0  0  0  0  0  0
    4.9693    2.9522    0.0000 N   0  0  0  0  0  0  0  0  0  0  0  0
    3.1021   -0.3197    0.0000 N   0  0  0  0  0  0  0  0  0  0  0  0
    4.8200    1.5311    0.0000 C   0  0  0  0  0  0  0  0  0  0  0  0
    3.6639    2.3710    0.0000 C   0  0  0  0  0  0  0  0  0  0  0  0
    5.3049    2.1986    0.0000 C   0  0  0  0  0  0  0  0  0  0  0  0
    4.1489    3.0385    0.0000 C   0  0  0  0  0  0  0  0  0  0  0  0
    3.5146    0.9499    0.0000 C   0  0  0  0  0  0  0  0  0  0  0  0
    5.4543    3.6196    0.0000 C   0  0  0  0  0  0  0  0  0  0  0  0
    3.7695    0.1652    0.0000 C   0  0  0  0  0  0  0  0  0  0  0  0
    2.6896    0.9499    0.0000 C   0  0  0  0  0  0  0  0  0  0  0  0
    2.4347    0.1652    0.0000 C   0  0  0  0  0  0  0  0  0  0  0  0
    3.1021   -1.1446    0.0000 C   0  0  0  0  0  0  0  0  0  0  0  0
    2.3876   -1.5571    0.0000 C   0  0  0  0  0  0  0  0  0  0  0  0
    3.8166   -1.5571    0.0000 C   0  0  0  0  0  0  0  0  0  0  0  0
    2.3876   -2.3821    0.0000 C   0  0  0  0  0  0  0  0  0  0  0  0
    3.8166   -2.3821    0.0000 C   0  0  0  0  0  0  0  0  0  0  0  0
    3.1021   -2.7946    0.0000 C   0  0  0  0  0  0  0  0  0  0  0  0
  1 16  1  0  0  0  0
  2 21  1  0  0  0  0
  3 23  1  0  0  0  0
  4 15  2  0  0  0  0
  5 17  2  0  0  0  0
  6  9  1  0  0  0  0
  6 10  1  0  0  0  0
  6 13  1  0  0  0  0
  7 11  1  0  0  0  0
  7 12  1  0  0  0  0
  7 14  1  0  0  0  0
  8 15  1  0  0  0  0
  8 17  1  0  0  0  0
  8 18  1  0  0  0  0
  9 11  1  0  0  0  0
 10 12  1  0  0  0  0
 13 15  1  0  0  0  0
 13 16  2  0  0  0  0
 16 17  1  0  0  0  0
 18 19  2  0  0  0  0
 18 20  1  0  0  0  0
 19 21  1  0  0  0  0
 20 22  2  0  0  0  0
 21 23  2  0  0  0  0
 22 23  1  0  0  0  0
M  END
> <From>
www.bindingDB.org

> <BindingDB Reactant_set_id>
51040199

> <Ligand InChI>
InChI=1S/C15H14Cl3N3O2/c1-19-4-6-20(7-5-19)13-12(18)14(22)21(15(13)23)9-2-3-10(16)11(17)8-9/h2-3,8H,4-7H2,1H3

> <Ligand InChI Key>
ZGZGUAKCJRZXRV-UHFFFAOYSA-N

> <BindingDB MonomerID>
34194

> <BindingDB Ligand Name>
3-chloranyl-1-(3,4-dichlorophenyl)-4-(4-methylpiperazin-1-yl)pyrrole-2,5-dione::3-chloro-1-(3,4-dichlorophenyl)-4-(4-methyl-1-piperazinyl)pyrrole-2,5-dione::3-chloro-1-(3,4-dichlorophenyl)-4-(4-methylpiperazin-1-yl)pyrrole-2,5-dione::3-chloro-1-(3,4-dichlorophenyl)-4-(4-methylpiperazino)-3-pyrroline-2,5-quinone::MLS000110530::PD119792::SMR000106459::cid_1180676

> <Target Name>
DNA repair protein RAD51 homolog 1

> <Target Source Organism According to Curator or DataSource>
Homo sapiens

> <Ki (nM)>


> <IC50 (nM)>
 6430

> <Kd (nM)>


> <EC50 (nM)>


> <kon (M-1-s-1)>


> <koff (s-1)>


> <pH>


> <Temp C>


> <Curation/DataSource>
ChEMBL

> <Article DOI>
10.1021/jm301565b

> <BindingDB Entry DOI>
10.7270/Q2VD70R1

> <PMID>
23231413

> <PubChem AID>


> <Patent Number>


> <Authors>
Budke, B; Kalin, JH; Pawlowski, M; Zelivianskaia, AS; Wu, M; Kozikowski, AP; Connell, PP

> <Date of publication>
1/10/2013

> <Date in BindingDB>
9/24/2013

> <Institution>
University of Chicago

> <Link to Ligand in BindingDB>
http://www.bindingdb.org/bind/chemsearch/marvin/MolStructure.jsp?monomerid=34194

> <Link to Ligand-Target Pair in BindingDB>
http://www.bindingdb.org/jsp/dbsearch/PrimarySearch_ki.jsp?energyterm=kJ/mole&tag=pol&polymerid=4676&target=DNA+repair+protein+RAD51+homolog+1&column=ki&startPg=0&Increment=50&submit=Search

> <Link to Ligand-Target Pair in BindingDB>
http://www.bindingdb.org/jsp/dbsearch/PrimarySearch_ki.jsp?energyterm=kJ/mole&tag=r21&monomerid=34194&enzyme=DNA+repair+protein+RAD51+homolog+1&column=ki&startPg=0&Increment=50&submit=Search

> <Ligand HET ID in PDB>


> <PDB ID(s) for Ligand-Target Complex>


> <PubChem CID of Ligand>
1180676

> <PubChem SID of Ligand>
252616881

> <ChEBI ID of Ligand>


> <ChEMBL ID of Ligand>


> <DrugBank ID of Ligand>


> <IUPHAR_GRAC ID of Ligand>


> <KEGG ID of Ligand>


> <ZINC ID of Ligand>
ZINC19791747

> <Number of Protein Chains in Target (bigger than 1 implies a multichain complex)>
1

> <BindingDB Target Chain Sequence>
MAMQMQLEANADTSVEEESFGPQPISRLEQCGINANDVKKLEEAGFHTVEAVAYAPKKELINIKGISEAKADKILAEAAKLVPMGFTTATEFHQRRSEIIQITTGSKELDKLLQGGIETGSITEMFGEFRTGKTQICHTLAVTCQLPIDRGGGEGKAMYIDTEGTFRPERLLAVAERYGLSGSDVLDNVAYARAFNTDHQTQLLYQASAMMVESRYALLIVDSATALYRTDYSGRGELSARQMHLARFLRMLLRLADEFGVAVVITNQVVAQVDGAAMFAADPKKPIGGNIIAHASTTRLYLRKGRGETRICKIYDSPCLPEAEAMFAINADGVGDAKD

> <PDB ID(s) of Target Chain>
1N0W,5JZC,5NP7,5NWL,8BQ2,8BR2,8BSC

> <UniProt (SwissProt) Recommended Name of Target Chain>
DNA repair protein RAD51 homolog 1

> <UniProt (SwissProt) Entry Name of Target Chain>
RAD51_HUMAN

> <UniProt (SwissProt) Primary ID of Target Chain>
Q06609

> <UniProt (SwissProt) Secondary ID(s) of Target Chain>
B0FXP0 B2R8T6 Q6FHX9 Q6ZNA8 Q9BV60

> <UniProt (SwissProt) Alternative ID(s) of Target Chain>


> <UniProt (TrEMBL) Submitted Name of Target Chain>


> <UniProt (TrEMBL) Entry Name of Target Chain>


> <UniProt (TrEMBL) Primary ID of Target Chain>


> <UniProt (TrEMBL) Secondary ID(s) of Target Chain>


> <UniProt (TrEMBL) Alternative ID(s) of Target Chain>


$$$$

  Mrv0541 11241415522D          

 22 24  0  0  0  0            999 V2000
   20.7312   -8.5413    0.0000 C   0  0  0  0  0  0  0  0  0  0  0  0
   20.7300   -9.3686    0.0000 C   0  0  0  0  0  0  0  0  0  0  0  0
   21.4448   -9.7815    0.0000 C   0  0  0  0  0  0  0  0  0  0  0  0
   22.1612   -9.3681    0.0000 C   0  0  0  0  0  0  0  0  0  0  0  0
   22.1583   -8.5377    0.0000 C   0  0  0  0  0  0  0  0  0  0  0  0
   21.4430   -8.1285    0.0000 C   0  0  0  0  0  0  0  0  0  0  0  0
   21.4432  -10.6054    0.0000 N   0  0  0  0  0  0  0  0  0  0  0  0
   20.7757  -11.0902    0.0000 C   0  0  0  0  0  0  0  0  0  0  0  0
   21.0304  -11.8749    0.0000 C   0  0  0  0  0  0  0  0  0  0  0  0
   21.8554  -11.8753    0.0000 C   0  0  0  0  0  0  0  0  0  0  0  0
   22.1105  -11.0905    0.0000 C   0  0  0  0  0  0  0  0  0  0  0  0
   22.2697  -12.5885    0.0000 N   0  0  0  0  0  0  0  0  0  0  0  0
   21.8555  -13.3030    0.0000 C   0  0  0  0  0  0  0  0  0  0  0  0
   22.2648  -14.0150    0.0000 C   0  0  0  0  0  0  0  0  0  0  0  0
   23.0902  -14.0188    0.0000 O   0  0  0  0  0  0  0  0  0  0  0  0
   23.5044  -13.3042    0.0000 C   0  0  0  0  0  0  0  0  0  0  0  0
   23.0933  -12.5860    0.0000 C   0  0  0  0  0  0  0  0  0  0  0  0
   22.8951  -10.8358    0.0000 O   0  0  0  0  0  0  0  0  0  0  0  0
   19.9912  -10.8351    0.0000 O   0  0  0  0  0  0  0  0  0  0  0  0
   20.5453  -12.5421    0.0000 Cl  0  0  0  0  0  0  0  0  0  0  0  0
   22.8712   -8.1225    0.0000 Cl  0  0  0  0  0  0  0  0  0  0  0  0
   21.4405   -7.3036    0.0000 Br  0  0  0  0  0  0  0  0  0  0  0  0
  1  2  2  0  0  0  0
  2  3  1  0  0  0  0
  3  4  2  0  0  0  0
  4  5  1  0  0  0  0
  5  6  2  0  0  0  0
  6  1  1  0  0  0  0
  7  8  1  0  0  0  0
  8  9  1  0  0  0  0
  9 10  2  0  0  0  0
 10 11  1  0  0  0  0
 11  7  1  0  0  0  0
  3  7  1  0  0  0  0
 12 13  1  0  0  0  0
 12 17  1  0  0  0  0
 13 14  1  0  0  0  0
 14 15  1  0  0  0  0
 15 16  1  0  0  0  0
 16 17  1  0  0  0  0
 10 12  1  0  0  0  0
 11 18  2  0  0  0  0
  8 19  2  0  0  0  0
  9 20  1  0  0  0  0
  5 21  1  0  0  0  0
  6 22  1  0  0  0  0
M  END
> <From>
www.bindingDB.org

> <BindingDB Reactant_set_id>
51040200

> <Ligand InChI>
InChI=1S/C14H11BrCl2N2O3/c15-9-2-1-8(7-10(9)16)19-13(20)11(17)12(14(19)21)18-3-5-22-6-4-18/h1-2,7H,3-6H2

> <Ligand InChI Key>
RRDLZCIJFYQNPP-UHFFFAOYSA-N

> <BindingDB MonomerID>
50424504

> <BindingDB Ligand Name>
CHEMBL2316738

> <Target Name>
DNA repair protein RAD51 homolog 1

> <Target Source Organism According to Curator or DataSource>
Homo sapiens

> <Ki (nM)>


> <IC50 (nM)>
 3100

> <Kd (nM)>


> <EC50 (nM)>


> <kon (M-1-s-1)>


> <koff (s-1)>


> <pH>


> <Temp C>


> <Curation/DataSource>
ChEMBL

> <Article DOI>
10.1021/jm301565b

> <BindingDB Entry DOI>
10.7270/Q2VD70R1

> <PMID>
23231413

> <PubChem AID>


> <Patent Number>


> <Authors>
Budke, B; Kalin, JH; Pawlowski, M; Zelivianskaia, AS; Wu, M; Kozikowski, AP; Connell, PP

> <Date of publication>
1/10/2013

> <Date in BindingDB>
9/24/2013

> <Institution>
University of Chicago

> <Link to Ligand in BindingDB>
http://www.bindingdb.org/bind/chemsearch/marvin/MolStructure.jsp?monomerid=50424504

> <Link to Ligand-Target Pair in BindingDB>
http://www.bindingdb.org/jsp/dbsearch/PrimarySearch_ki.jsp?energyterm=kJ/mole&tag=pol&polymerid=4676&target=DNA+repair+protein+RAD51+homolog+1&column=ki&startPg=0&Increment=50&submit=Search

> <Link to Ligand-Target Pair in BindingDB>
http://www.bindingdb.org/jsp/dbsearch/PrimarySearch_ki.jsp?energyterm=kJ/mole&tag=r21&monomerid=50424504&enzyme=DNA+repair+protein+RAD51+homolog+1&column=ki&startPg=0&Increment=50&submit=Search

> <Ligand HET ID in PDB>


> <PDB ID(s) for Ligand-Target Complex>


> <PubChem CID of Ligand>
71546837

> <PubChem SID of Ligand>
164153379

> <ChEBI ID of Ligand>


> <ChEMBL ID of Ligand>
CHEMBL2316738

> <DrugBank ID of Ligand>


> <IUPHAR_GRAC ID of Ligand>


> <KEGG ID of Ligand>


> <ZINC ID of Ligand>
ZINC95595996

> <Number of Protein Chains in Target (bigger than 1 implies a multichain complex)>
1

> <BindingDB Target Chain Sequence>
MAMQMQLEANADTSVEEESFGPQPISRLEQCGINANDVKKLEEAGFHTVEAVAYAPKKELINIKGISEAKADKILAEAAKLVPMGFTTATEFHQRRSEIIQITTGSKELDKLLQGGIETGSITEMFGEFRTGKTQICHTLAVTCQLPIDRGGGEGKAMYIDTEGTFRPERLLAVAERYGLSGSDVLDNVAYARAFNTDHQTQLLYQASAMMVESRYALLIVDSATALYRTDYSGRGELSARQMHLARFLRMLLRLADEFGVAVVITNQVVAQVDGAAMFAADPKKPIGGNIIAHASTTRLYLRKGRGETRICKIYDSPCLPEAEAMFAINADGVGDAKD

> <PDB ID(s) of Target Chain>
1N0W,5JZC,5NP7,5NWL,8BQ2,8BR2,8BSC

> <UniProt (SwissProt) Recommended Name of Target Chain>
DNA repair protein RAD51 homolog 1

> <UniProt (SwissProt) Entry Name of Target Chain>
RAD51_HUMAN

> <UniProt (SwissProt) Primary ID of Target Chain>
Q06609

> <UniProt (SwissProt) Secondary ID(s) of Target Chain>
B0FXP0 B2R8T6 Q6FHX9 Q6ZNA8 Q9BV60

> <UniProt (SwissProt) Alternative ID(s) of Target Chain>


> <UniProt (TrEMBL) Submitted Name of Target Chain>


> <UniProt (TrEMBL) Entry Name of Target Chain>


> <UniProt (TrEMBL) Primary ID of Target Chain>


> <UniProt (TrEMBL) Secondary ID(s) of Target Chain>


> <UniProt (TrEMBL) Alternative ID(s) of Target Chain>


$$$$

  Mrv0541 11241415522D          

 22 24  0  0  0  0            999 V2000
   16.7765   -8.4202    0.0000 C   0  0  0  0  0  0  0  0  0  0  0  0
   16.7754   -9.2475    0.0000 C   0  0  0  0  0  0  0  0  0  0  0  0
   17.4901   -9.6604    0.0000 C   0  0  0  0  0  0  0  0  0  0  0  0
   18.2065   -9.2471    0.0000 C   0  0  0  0  0  0  0  0  0  0  0  0
   18.2037   -8.4166    0.0000 C   0  0  0  0  0  0  0  0  0  0  0  0
   17.4883   -8.0074    0.0000 C   0  0  0  0  0  0  0  0  0  0  0  0
   17.4886  -10.4842    0.0000 N   0  0  0  0  0  0  0  0  0  0  0  0
   16.8211  -10.9689    0.0000 C   0  0  0  0  0  0  0  0  0  0  0  0
   17.0758  -11.7536    0.0000 C   0  0  0  0  0  0  0  0  0  0  0  0
   17.9008  -11.7540    0.0000 C   0  0  0  0  0  0  0  0  0  0  0  0
   18.1558  -10.9693    0.0000 C   0  0  0  0  0  0  0  0  0  0  0  0
   18.3150  -12.4672    0.0000 N   0  0  0  0  0  0  0  0  0  0  0  0
   17.9008  -13.1817    0.0000 C   0  0  0  0  0  0  0  0  0  0  0  0
   18.3102  -13.8938    0.0000 C   0  0  0  0  0  0  0  0  0  0  0  0
   19.1355  -13.8975    0.0000 O   0  0  0  0  0  0  0  0  0  0  0  0
   19.5497  -13.1829    0.0000 C   0  0  0  0  0  0  0  0  0  0  0  0
   19.1386  -12.4647    0.0000 C   0  0  0  0  0  0  0  0  0  0  0  0
   18.9404  -10.7146    0.0000 O   0  0  0  0  0  0  0  0  0  0  0  0
   16.0366  -10.7138    0.0000 O   0  0  0  0  0  0  0  0  0  0  0  0
   16.5907  -12.4208    0.0000 Cl  0  0  0  0  0  0  0  0  0  0  0  0
   18.9165   -8.0014    0.0000 Br  0  0  0  0  0  0  0  0  0  0  0  0
   17.4859   -7.1825    0.0000 Cl  0  0  0  0  0  0  0  0  0  0  0  0
  1  2  2  0  0  0  0
  2  3  1  0  0  0  0
  3  4  2  0  0  0  0
  4  5  1  0  0  0  0
  5  6  2  0  0  0  0
  6  1  1  0  0  0  0
  7  8  1  0  0  0  0
  8  9  1  0  0  0  0
  9 10  2  0  0  0  0
 10 11  1  0  0  0  0
 11  7  1  0  0  0  0
  3  7  1  0  0  0  0
 12 13  1  0  0  0  0
 12 17  1  0  0  0  0
 13 14  1  0  0  0  0
 14 15  1  0  0  0  0
 15 16  1  0  0  0  0
 16 17  1  0  0  0  0
 10 12  1  0  0  0  0
 11 18  2  0  0  0  0
  8 19  2  0  0  0  0
  9 20  1  0  0  0  0
  5 21  1  0  0  0  0
  6 22  1  0  0  0  0
M  END
> <From>
www.bindingDB.org

> <BindingDB Reactant_set_id>
51040201

> <Ligand InChI>
InChI=1S/C14H11BrCl2N2O3/c15-9-7-8(1-2-10(9)16)19-13(20)11(17)12(14(19)21)18-3-5-22-6-4-18/h1-2,7H,3-6H2

> <Ligand InChI Key>
RBOFFRYHWDGWQN-UHFFFAOYSA-N

> <BindingDB MonomerID>
50424505

> <BindingDB Ligand Name>
CHEMBL2316737

> <Target Name>
DNA repair protein RAD51 homolog 1

> <Target Source Organism According to Curator or DataSource>
Homo sapiens

> <Ki (nM)>


> <IC50 (nM)>
 9940

> <Kd (nM)>


> <EC50 (nM)>


> <kon (M-1-s-1)>


> <koff (s-1)>


> <pH>


> <Temp C>


> <Curation/DataSource>
ChEMBL

> <Article DOI>
10.1021/jm301565b

> <BindingDB Entry DOI>
10.7270/Q2VD70R1

> <PMID>
23231413

> <PubChem AID>


> <Patent Number>


> <Authors>
Budke, B; Kalin, JH; Pawlowski, M; Zelivianskaia, AS; Wu, M; Kozikowski, AP; Connell, PP

> <Date of publication>
1/10/2013

> <Date in BindingDB>
9/24/2013

> <Institution>
University of Chicago

> <Link to Ligand in BindingDB>
http://www.bindingdb.org/bind/chemsearch/marvin/MolStructure.jsp?monomerid=50424505

> <Link to Ligand-Target Pair in BindingDB>
http://www.bindingdb.org/jsp/dbsearch/PrimarySearch_ki.jsp?energyterm=kJ/mole&tag=pol&polymerid=4676&target=DNA+repair+protein+RAD51+homolog+1&column=ki&startPg=0&Increment=50&submit=Search

> <Link to Ligand-Target Pair in BindingDB>
http://www.bindingdb.org/jsp/dbsearch/PrimarySearch_ki.jsp?energyterm=kJ/mole&tag=r21&monomerid=50424505&enzyme=DNA+repair+protein+RAD51+homolog+1&column=ki&startPg=0&Increment=50&submit=Search

> <Ligand HET ID in PDB>


> <PDB ID(s) for Ligand-Target Complex>


> <PubChem CID of Ligand>
71546836

> <PubChem SID of Ligand>
164153380

> <ChEBI ID of Ligand>


> <ChEMBL ID of Ligand>
CHEMBL2316737

> <DrugBank ID of Ligand>


> <IUPHAR_GRAC ID of Ligand>


> <KEGG ID of Ligand>


> <ZINC ID of Ligand>
ZINC95596200

> <Number of Protein Chains in Target (bigger than 1 implies a multichain complex)>
1

> <BindingDB Target Chain Sequence>
MAMQMQLEANADTSVEEESFGPQPISRLEQCGINANDVKKLEEAGFHTVEAVAYAPKKELINIKGISEAKADKILAEAAKLVPMGFTTATEFHQRRSEIIQITTGSKELDKLLQGGIETGSITEMFGEFRTGKTQICHTLAVTCQLPIDRGGGEGKAMYIDTEGTFRPERLLAVAERYGLSGSDVLDNVAYARAFNTDHQTQLLYQASAMMVESRYALLIVDSATALYRTDYSGRGELSARQMHLARFLRMLLRLADEFGVAVVITNQVVAQVDGAAMFAADPKKPIGGNIIAHASTTRLYLRKGRGETRICKIYDSPCLPEAEAMFAINADGVGDAKD

> <PDB ID(s) of Target Chain>
1N0W,5JZC,5NP7,5NWL,8BQ2,8BR2,8BSC

> <UniProt (SwissProt) Recommended Name of Target Chain>
DNA repair protein RAD51 homolog 1

> <UniProt (SwissProt) Entry Name of Target Chain>
RAD51_HUMAN

> <UniProt (SwissProt) Primary ID of Target Chain>
Q06609

> <UniProt (SwissProt) Secondary ID(s) of Target Chain>
B0FXP0 B2R8T6 Q6FHX9 Q6ZNA8 Q9BV60

> <UniProt (SwissProt) Alternative ID(s) of Target Chain>


> <UniProt (TrEMBL) Submitted Name of Target Chain>


> <UniProt (TrEMBL) Entry Name of Target Chain>


> <UniProt (TrEMBL) Primary ID of Target Chain>


> <UniProt (TrEMBL) Secondary ID(s) of Target Chain>


> <UniProt (TrEMBL) Alternative ID(s) of Target Chain>


$$$$

  Mrv0541 11241415522D          

 22 24  0  0  0  0            999 V2000
   12.4476   -8.7785    0.0000 C   0  0  0  0  0  0  0  0  0  0  0  0
   12.4465   -9.6058    0.0000 C   0  0  0  0  0  0  0  0  0  0  0  0
   13.1612  -10.0186    0.0000 C   0  0  0  0  0  0  0  0  0  0  0  0
   13.8777   -9.6053    0.0000 C   0  0  0  0  0  0  0  0  0  0  0  0
   13.8748   -8.7748    0.0000 C   0  0  0  0  0  0  0  0  0  0  0  0
   13.1595   -8.3658    0.0000 C   0  0  0  0  0  0  0  0  0  0  0  0
   13.1597  -10.8426    0.0000 N   0  0  0  0  0  0  0  0  0  0  0  0
   12.4923  -11.3273    0.0000 C   0  0  0  0  0  0  0  0  0  0  0  0
   12.7469  -12.1119    0.0000 C   0  0  0  0  0  0  0  0  0  0  0  0
   13.5719  -12.1124    0.0000 C   0  0  0  0  0  0  0  0  0  0  0  0
   13.8270  -11.3276    0.0000 C   0  0  0  0  0  0  0  0  0  0  0  0
   13.9861  -12.8256    0.0000 N   0  0  0  0  0  0  0  0  0  0  0  0
   13.5719  -13.5401    0.0000 C   0  0  0  0  0  0  0  0  0  0  0  0
   13.9813  -14.2521    0.0000 C   0  0  0  0  0  0  0  0  0  0  0  0
   14.8066  -14.2558    0.0000 O   0  0  0  0  0  0  0  0  0  0  0  0
   15.2209  -13.5413    0.0000 C   0  0  0  0  0  0  0  0  0  0  0  0
   14.8097  -12.8231    0.0000 C   0  0  0  0  0  0  0  0  0  0  0  0
   14.6116  -11.0728    0.0000 O   0  0  0  0  0  0  0  0  0  0  0  0
   11.7077  -11.0722    0.0000 O   0  0  0  0  0  0  0  0  0  0  0  0
   12.2618  -12.7792    0.0000 Cl  0  0  0  0  0  0  0  0  0  0  0  0
   14.5876   -8.3597    0.0000 F   0  0  0  0  0  0  0  0  0  0  0  0
   13.1570   -7.5408    0.0000 Cl  0  0  0  0  0  0  0  0  0  0  0  0
  1  2  2  0  0  0  0
  2  3  1  0  0  0  0
  3  4  2  0  0  0  0
  4  5  1  0  0  0  0
  5  6  2  0  0  0  0
  6  1  1  0  0  0  0
  7  8  1  0  0  0  0
  8  9  1  0  0  0  0
  9 10  2  0  0  0  0
 10 11  1  0  0  0  0
 11  7  1  0  0  0  0
  3  7  1  0  0  0  0
 12 13  1  0  0  0  0
 12 17  1  0  0  0  0
 13 14  1  0  0  0  0
 14 15  1  0  0  0  0
 15 16  1  0  0  0  0
 16 17  1  0  0  0  0
 10 12  1  0  0  0  0
 11 18  2  0  0  0  0
  8 19  2  0  0  0  0
  9 20  1  0  0  0  0
  5 21  1  0  0  0  0
  6 22  1  0  0  0  0
M  END
> <From>
www.bindingDB.org

> <BindingDB Reactant_set_id>
51040202

> <Ligand InChI>
InChI=1S/C14H11Cl2FN2O3/c15-9-2-1-8(7-10(9)17)19-13(20)11(16)12(14(19)21)18-3-5-22-6-4-18/h1-2,7H,3-6H2

> <Ligand InChI Key>
QZCBPRZSHPNMPY-UHFFFAOYSA-N

> <BindingDB MonomerID>
50424506

> <BindingDB Ligand Name>
CHEMBL2316736

> <Target Name>
DNA repair protein RAD51 homolog 1

> <Target Source Organism According to Curator or DataSource>
Homo sapiens

> <Ki (nM)>


> <IC50 (nM)>
 7910

> <Kd (nM)>


> <EC50 (nM)>


> <kon (M-1-s-1)>


> <koff (s-1)>


> <pH>


> <Temp C>


> <Curation/DataSource>
ChEMBL

> <Article DOI>
10.1021/jm301565b

> <BindingDB Entry DOI>
10.7270/Q2VD70R1

> <PMID>
23231413

> <PubChem AID>


> <Patent Number>


> <Authors>
Budke, B; Kalin, JH; Pawlowski, M; Zelivianskaia, AS; Wu, M; Kozikowski, AP; Connell, PP

> <Date of publication>
1/10/2013

> <Date in BindingDB>
9/24/2013

> <Institution>
University of Chicago

> <Link to Ligand in BindingDB>
http://www.bindingdb.org/bind/chemsearch/marvin/MolStructure.jsp?monomerid=50424506

> <Link to Ligand-Target Pair in BindingDB>
http://www.bindingdb.org/jsp/dbsearch/PrimarySearch_ki.jsp?energyterm=kJ/mole&tag=pol&polymerid=4676&target=DNA+repair+protein+RAD51+homolog+1&column=ki&startPg=0&Increment=50&submit=Search

> <Link to Ligand-Target Pair in BindingDB>
http://www.bindingdb.org/jsp/dbsearch/PrimarySearch_ki.jsp?energyterm=kJ/mole&tag=r21&monomerid=50424506&enzyme=DNA+repair+protein+RAD51+homolog+1&column=ki&startPg=0&Increment=50&submit=Search

> <Ligand HET ID in PDB>


> <PDB ID(s) for Ligand-Target Complex>


> <PubChem CID of Ligand>
71546686

> <PubChem SID of Ligand>
164153381

> <ChEBI ID of Ligand>


> <ChEMBL ID of Ligand>
CHEMBL2316736

> <DrugBank ID of Ligand>


> <IUPHAR_GRAC ID of Ligand>


> <KEGG ID of Ligand>


> <ZINC ID of Ligand>
ZINC95598189

> <Number of Protein Chains in Target (bigger than 1 implies a multichain complex)>
1

> <BindingDB Target Chain Sequence>
MAMQMQLEANADTSVEEESFGPQPISRLEQCGINANDVKKLEEAGFHTVEAVAYAPKKELINIKGISEAKADKILAEAAKLVPMGFTTATEFHQRRSEIIQITTGSKELDKLLQGGIETGSITEMFGEFRTGKTQICHTLAVTCQLPIDRGGGEGKAMYIDTEGTFRPERLLAVAERYGLSGSDVLDNVAYARAFNTDHQTQLLYQASAMMVESRYALLIVDSATALYRTDYSGRGELSARQMHLARFLRMLLRLADEFGVAVVITNQVVAQVDGAAMFAADPKKPIGGNIIAHASTTRLYLRKGRGETRICKIYDSPCLPEAEAMFAINADGVGDAKD

> <PDB ID(s) of Target Chain>
1N0W,5JZC,5NP7,5NWL,8BQ2,8BR2,8BSC

> <UniProt (SwissProt) Recommended Name of Target Chain>
DNA repair protein RAD51 homolog 1

> <UniProt (SwissProt) Entry Name of Target Chain>
RAD51_HUMAN

> <UniProt (SwissProt) Primary ID of Target Chain>
Q06609

> <UniProt (SwissProt) Secondary ID(s) of Target Chain>
B0FXP0 B2R8T6 Q6FHX9 Q6ZNA8 Q9BV60

> <UniProt (SwissProt) Alternative ID(s) of Target Chain>


> <UniProt (TrEMBL) Submitted Name of Target Chain>


> <UniProt (TrEMBL) Entry Name of Target Chain>


> <UniProt (TrEMBL) Primary ID of Target Chain>


> <UniProt (TrEMBL) Secondary ID(s) of Target Chain>


> <UniProt (TrEMBL) Alternative ID(s) of Target Chain>


$$$$

  Mrv0541 11241415522D          

 22 24  0  0  0  0            999 V2000
    7.1814   -9.3576    0.0000 C   0  0  0  0  0  0  0  0  0  0  0  0
    7.1803  -10.1850    0.0000 C   0  0  0  0  0  0  0  0  0  0  0  0
    7.8950  -10.5978    0.0000 C   0  0  0  0  0  0  0  0  0  0  0  0
    8.6114  -10.1845    0.0000 C   0  0  0  0  0  0  0  0  0  0  0  0
    8.6086   -9.3540    0.0000 C   0  0  0  0  0  0  0  0  0  0  0  0
    7.8931   -8.9449    0.0000 C   0  0  0  0  0  0  0  0  0  0  0  0
    7.8935  -11.4217    0.0000 N   0  0  0  0  0  0  0  0  0  0  0  0
    7.2260  -11.9065    0.0000 C   0  0  0  0  0  0  0  0  0  0  0  0
    7.4807  -12.6910    0.0000 C   0  0  0  0  0  0  0  0  0  0  0  0
    8.3056  -12.6914    0.0000 C   0  0  0  0  0  0  0  0  0  0  0  0
    8.5606  -11.9068    0.0000 C   0  0  0  0  0  0  0  0  0  0  0  0
    8.7198  -13.4046    0.0000 N   0  0  0  0  0  0  0  0  0  0  0  0
    8.3056  -14.1192    0.0000 C   0  0  0  0  0  0  0  0  0  0  0  0
    8.7151  -14.8312    0.0000 C   0  0  0  0  0  0  0  0  0  0  0  0
    9.5403  -14.8350    0.0000 O   0  0  0  0  0  0  0  0  0  0  0  0
    9.9545  -14.1204    0.0000 C   0  0  0  0  0  0  0  0  0  0  0  0
    9.5435  -13.4021    0.0000 C   0  0  0  0  0  0  0  0  0  0  0  0
    9.3453  -11.6520    0.0000 O   0  0  0  0  0  0  0  0  0  0  0  0
    6.4414  -11.6514    0.0000 O   0  0  0  0  0  0  0  0  0  0  0  0
    6.9955  -13.3583    0.0000 Cl  0  0  0  0  0  0  0  0  0  0  0  0
    9.3214   -8.9389    0.0000 Cl  0  0  0  0  0  0  0  0  0  0  0  0
    7.8907   -8.1200    0.0000 F   0  0  0  0  0  0  0  0  0  0  0  0
  1  2  2  0  0  0  0
  2  3  1  0  0  0  0
  3  4  2  0  0  0  0
  4  5  1  0  0  0  0
  5  6  2  0  0  0  0
  6  1  1  0  0  0  0
  7  8  1  0  0  0  0
  8  9  1  0  0  0  0
  9 10  2  0  0  0  0
 10 11  1  0  0  0  0
 11  7  1  0  0  0  0
  3  7  1  0  0  0  0
 12 13  1  0  0  0  0
 12 17  1  0  0  0  0
 13 14  1  0  0  0  0
 14 15  1  0  0  0  0
 15 16  1  0  0  0  0
 16 17  1  0  0  0  0
 10 12  1  0  0  0  0
 11 18  2  0  0  0  0
  8 19  2  0  0  0  0
  9 20  1  0  0  0  0
  5 21  1  0  0  0  0
  6 22  1  0  0  0  0
M  END
> <From>
www.bindingDB.org

> <BindingDB Reactant_set_id>
51040203

> <Ligand InChI>
InChI=1S/C14H11Cl2FN2O3/c15-9-7-8(1-2-10(9)17)19-13(20)11(16)12(14(19)21)18-3-5-22-6-4-18/h1-2,7H,3-6H2

> <Ligand InChI Key>
NSSVFYXXXVBJLB-UHFFFAOYSA-N

> <BindingDB MonomerID>
50424507

> <BindingDB Ligand Name>
CHEMBL2316735

> <Target Name>
DNA repair protein RAD51 homolog 1

> <Target Source Organism According to Curator or DataSource>
Homo sapiens

> <Ki (nM)>


> <IC50 (nM)>
 8320

> <Kd (nM)>


> <EC50 (nM)>


> <kon (M-1-s-1)>


> <koff (s-1)>


> <pH>


> <Temp C>


> <Curation/DataSource>
ChEMBL

> <Article DOI>
10.1021/jm301565b

> <BindingDB Entry DOI>
10.7270/Q2VD70R1

> <PMID>
23231413

> <PubChem AID>


> <Patent Number>


> <Authors>
Budke, B; Kalin, JH; Pawlowski, M; Zelivianskaia, AS; Wu, M; Kozikowski, AP; Connell, PP

> <Date of publication>
1/10/2013

> <Date in BindingDB>
9/24/2013

> <Institution>
University of Chicago

> <Link to Ligand in BindingDB>
http://www.bindingdb.org/bind/chemsearch/marvin/MolStructure.jsp?monomerid=50424507

> <Link to Ligand-Target Pair in BindingDB>
http://www.bindingdb.org/jsp/dbsearch/PrimarySearch_ki.jsp?energyterm=kJ/mole&tag=pol&polymerid=4676&target=DNA+repair+protein+RAD51+homolog+1&column=ki&startPg=0&Increment=50&submit=Search

> <Link to Ligand-Target Pair in BindingDB>
http://www.bindingdb.org/jsp/dbsearch/PrimarySearch_ki.jsp?energyterm=kJ/mole&tag=r21&monomerid=50424507&enzyme=DNA+repair+protein+RAD51+homolog+1&column=ki&startPg=0&Increment=50&submit=Search

> <Ligand HET ID in PDB>


> <PDB ID(s) for Ligand-Target Complex>


> <PubChem CID of Ligand>
1661927

> <PubChem SID of Ligand>
164153382

> <ChEBI ID of Ligand>


> <ChEMBL ID of Ligand>
CHEMBL2316735

> <DrugBank ID of Ligand>


> <IUPHAR_GRAC ID of Ligand>


> <KEGG ID of Ligand>


> <ZINC ID of Ligand>
ZINC01935575

> <Number of Protein Chains in Target (bigger than 1 implies a multichain complex)>
1

> <BindingDB Target Chain Sequence>
MAMQMQLEANADTSVEEESFGPQPISRLEQCGINANDVKKLEEAGFHTVEAVAYAPKKELINIKGISEAKADKILAEAAKLVPMGFTTATEFHQRRSEIIQITTGSKELDKLLQGGIETGSITEMFGEFRTGKTQICHTLAVTCQLPIDRGGGEGKAMYIDTEGTFRPERLLAVAERYGLSGSDVLDNVAYARAFNTDHQTQLLYQASAMMVESRYALLIVDSATALYRTDYSGRGELSARQMHLARFLRMLLRLADEFGVAVVITNQVVAQVDGAAMFAADPKKPIGGNIIAHASTTRLYLRKGRGETRICKIYDSPCLPEAEAMFAINADGVGDAKD

> <PDB ID(s) of Target Chain>
1N0W,5JZC,5NP7,5NWL,8BQ2,8BR2,8BSC

> <UniProt (SwissProt) Recommended Name of Target Chain>
DNA repair protein RAD51 homolog 1

> <UniProt (SwissProt) Entry Name of Target Chain>
RAD51_HUMAN

> <UniProt (SwissProt) Primary ID of Target Chain>
Q06609

> <UniProt (SwissProt) Secondary ID(s) of Target Chain>
B0FXP0 B2R8T6 Q6FHX9 Q6ZNA8 Q9BV60

> <UniProt (SwissProt) Alternative ID(s) of Target Chain>


> <UniProt (TrEMBL) Submitted Name of Target Chain>


> <UniProt (TrEMBL) Entry Name of Target Chain>


> <UniProt (TrEMBL) Primary ID of Target Chain>


> <UniProt (TrEMBL) Secondary ID(s) of Target Chain>


> <UniProt (TrEMBL) Alternative ID(s) of Target Chain>


$$$$

  Mrv0541 11241415522D          

 22 24  0  0  0  0            999 V2000
    2.1818   -9.0747    0.0000 C   0  0  0  0  0  0  0  0  0  0  0  0
    2.1807   -9.9020    0.0000 C   0  0  0  0  0  0  0  0  0  0  0  0
    2.8954  -10.3149    0.0000 C   0  0  0  0  0  0  0  0  0  0  0  0
    3.6119   -9.9015    0.0000 C   0  0  0  0  0  0  0  0  0  0  0  0
    3.6090   -9.0710    0.0000 C   0  0  0  0  0  0  0  0  0  0  0  0
    2.8937   -8.6619    0.0000 C   0  0  0  0  0  0  0  0  0  0  0  0
    2.8939  -11.1387    0.0000 N   0  0  0  0  0  0  0  0  0  0  0  0
    2.2264  -11.6235    0.0000 C   0  0  0  0  0  0  0  0  0  0  0  0
    2.4811  -12.4082    0.0000 C   0  0  0  0  0  0  0  0  0  0  0  0
    3.3061  -12.4086    0.0000 C   0  0  0  0  0  0  0  0  0  0  0  0
    3.5612  -11.6238    0.0000 C   0  0  0  0  0  0  0  0  0  0  0  0
    3.7203  -13.1218    0.0000 N   0  0  0  0  0  0  0  0  0  0  0  0
    3.3061  -13.8364    0.0000 C   0  0  0  0  0  0  0  0  0  0  0  0
    3.7155  -14.5484    0.0000 C   0  0  0  0  0  0  0  0  0  0  0  0
    4.5409  -14.5521    0.0000 O   0  0  0  0  0  0  0  0  0  0  0  0
    4.9551  -13.8376    0.0000 C   0  0  0  0  0  0  0  0  0  0  0  0
    4.5439  -13.1193    0.0000 C   0  0  0  0  0  0  0  0  0  0  0  0
    4.3458  -11.3690    0.0000 O   0  0  0  0  0  0  0  0  0  0  0  0
    1.4419  -11.3684    0.0000 O   0  0  0  0  0  0  0  0  0  0  0  0
    1.9959  -13.0754    0.0000 Cl  0  0  0  0  0  0  0  0  0  0  0  0
    2.8912   -7.8369    0.0000 F   0  0  0  0  0  0  0  0  0  0  0  0
    4.3218   -8.6558    0.0000 F   0  0  0  0  0  0  0  0  0  0  0  0
  1  2  2  0  0  0  0
  2  3  1  0  0  0  0
  3  4  2  0  0  0  0
  4  5  1  0  0  0  0
  5  6  2  0  0  0  0
  6  1  1  0  0  0  0
  7  8  1  0  0  0  0
  8  9  1  0  0  0  0
  9 10  2  0  0  0  0
 10 11  1  0  0  0  0
 11  7  1  0  0  0  0
  3  7  1  0  0  0  0
 12 13  1  0  0  0  0
 12 17  1  0  0  0  0
 13 14  1  0  0  0  0
 14 15  1  0  0  0  0
 15 16  1  0  0  0  0
 16 17  1  0  0  0  0
 10 12  1  0  0  0  0
 11 18  2  0  0  0  0
  8 19  2  0  0  0  0
  9 20  1  0  0  0  0
  6 21  1  0  0  0  0
  5 22  1  0  0  0  0
M  END
> <From>
www.bindingDB.org

> <BindingDB Reactant_set_id>
51040204

> <Ligand InChI>
InChI=1S/C14H11ClF2N2O3/c15-11-12(18-3-5-22-6-4-18)14(21)19(13(11)20)8-1-2-9(16)10(17)7-8/h1-2,7H,3-6H2

> <Ligand InChI Key>
SMLGETXPMSMWPZ-UHFFFAOYSA-N

> <BindingDB MonomerID>
50424508

> <BindingDB Ligand Name>
CHEMBL2316734

> <Target Name>
DNA repair protein RAD51 homolog 1

> <Target Source Organism According to Curator or DataSource>
Homo sapiens

> <Ki (nM)>


> <IC50 (nM)>
 13160

> <Kd (nM)>


> <EC50 (nM)>


> <kon (M-1-s-1)>


> <koff (s-1)>


> <pH>


> <Temp C>


> <Curation/DataSource>
ChEMBL

> <Article DOI>
10.1021/jm301565b

> <BindingDB Entry DOI>
10.7270/Q2VD70R1

> <PMID>
23231413

> <PubChem AID>


> <Patent Number>


> <Authors>
Budke, B; Kalin, JH; Pawlowski, M; Zelivianskaia, AS; Wu, M; Kozikowski, AP; Connell, PP

> <Date of publication>
1/10/2013

> <Date in BindingDB>
9/24/2013

> <Institution>
University of Chicago

> <Link to Ligand in BindingDB>
http://www.bindingdb.org/bind/chemsearch/marvin/MolStructure.jsp?monomerid=50424508

> <Link to Ligand-Target Pair in BindingDB>
http://www.bindingdb.org/jsp/dbsearch/PrimarySearch_ki.jsp?energyterm=kJ/mole&tag=pol&polymerid=4676&target=DNA+repair+protein+RAD51+homolog+1&column=ki&startPg=0&Increment=50&submit=Search

> <Link to Ligand-Target Pair in BindingDB>
http://www.bindingdb.org/jsp/dbsearch/PrimarySearch_ki.jsp?energyterm=kJ/mole&tag=r21&monomerid=50424508&enzyme=DNA+repair+protein+RAD51+homolog+1&column=ki&startPg=0&Increment=50&submit=Search

> <Ligand HET ID in PDB>


> <PDB ID(s) for Ligand-Target Complex>


> <PubChem CID of Ligand>
71546685

> <PubChem SID of Ligand>
164153383

> <ChEBI ID of Ligand>


> <ChEMBL ID of Ligand>
CHEMBL2316734

> <DrugBank ID of Ligand>


> <IUPHAR_GRAC ID of Ligand>


> <KEGG ID of Ligand>


> <ZINC ID of Ligand>
ZINC95596067

> <Number of Protein Chains in Target (bigger than 1 implies a multichain complex)>
1

> <BindingDB Target Chain Sequence>
MAMQMQLEANADTSVEEESFGPQPISRLEQCGINANDVKKLEEAGFHTVEAVAYAPKKELINIKGISEAKADKILAEAAKLVPMGFTTATEFHQRRSEIIQITTGSKELDKLLQGGIETGSITEMFGEFRTGKTQICHTLAVTCQLPIDRGGGEGKAMYIDTEGTFRPERLLAVAERYGLSGSDVLDNVAYARAFNTDHQTQLLYQASAMMVESRYALLIVDSATALYRTDYSGRGELSARQMHLARFLRMLLRLADEFGVAVVITNQVVAQVDGAAMFAADPKKPIGGNIIAHASTTRLYLRKGRGETRICKIYDSPCLPEAEAMFAINADGVGDAKD

> <PDB ID(s) of Target Chain>
1N0W,5JZC,5NP7,5NWL,8BQ2,8BR2,8BSC

> <UniProt (SwissProt) Recommended Name of Target Chain>
DNA repair protein RAD51 homolog 1

> <UniProt (SwissProt) Entry Name of Target Chain>
RAD51_HUMAN

> <UniProt (SwissProt) Primary ID of Target Chain>
Q06609

> <UniProt (SwissProt) Secondary ID(s) of Target Chain>
B0FXP0 B2R8T6 Q6FHX9 Q6ZNA8 Q9BV60

> <UniProt (SwissProt) Alternative ID(s) of Target Chain>


> <UniProt (TrEMBL) Submitted Name of Target Chain>


> <UniProt (TrEMBL) Entry Name of Target Chain>


> <UniProt (TrEMBL) Primary ID of Target Chain>


> <UniProt (TrEMBL) Secondary ID(s) of Target Chain>


> <UniProt (TrEMBL) Alternative ID(s) of Target Chain>


$$$$
1049183
  Mrv0541 11251415402D          

 22 24  0  0  0  0            999 V2000
    2.2047    1.4954    0.0000 Cl  0  0  0  0  0  0  0  0  0  0  0  0
    1.6731   -1.2665    0.0000 Cl  0  0  0  0  0  0  0  0  0  0  0  0
    1.6731   -2.9166    0.0000 Cl  0  0  0  0  0  0  0  0  0  0  0  0
    4.9693    2.8303    0.0000 O   0  0  0  0  0  0  0  0  0  0  0  0
    4.5542   -0.2115    0.0000 O   0  0  0  0  0  0  0  0  0  0  0  0
    1.6500   -0.2115    0.0000 O   0  0  0  0  0  0  0  0  0  0  0  0
    3.9995    1.4954    0.0000 N   0  0  0  0  0  0  0  0  0  0  0  0
    3.1021   -0.4415    0.0000 N   0  0  0  0  0  0  0  0  0  0  0  0
    4.8200    1.4092    0.0000 C   0  0  0  0  0  0  0  0  0  0  0  0
    3.6639    2.2491    0.0000 C   0  0  0  0  0  0  0  0  0  0  0  0
    3.5146    0.8280    0.0000 C   0  0  0  0  0  0  0  0  0  0  0  0
    4.1489    2.9166    0.0000 C   0  0  0  0  0  0  0  0  0  0  0  0
    5.3049    2.0766    0.0000 C   0  0  0  0  0  0  0  0  0  0  0  0
    3.7695    0.0434    0.0000 C   0  0  0  0  0  0  0  0  0  0  0  0
    2.6896    0.8280    0.0000 C   0  0  0  0  0  0  0  0  0  0  0  0
    2.4347    0.0434    0.0000 C   0  0  0  0  0  0  0  0  0  0  0  0
    3.1021   -1.2665    0.0000 C   0  0  0  0  0  0  0  0  0  0  0  0
    2.3876   -1.6790    0.0000 C   0  0  0  0  0  0  0  0  0  0  0  0
    3.8166   -1.6790    0.0000 C   0  0  0  0  0  0  0  0  0  0  0  0
    2.3876   -2.5041    0.0000 C   0  0  0  0  0  0  0  0  0  0  0  0
    3.8166   -2.5041    0.0000 C   0  0  0  0  0  0  0  0  0  0  0  0
    3.1021   -2.9166    0.0000 C   0  0  0  0  0  0  0  0  0  0  0  0
  1 15  1  0  0  0  0
  2 18  1  0  0  0  0
  3 20  1  0  0  0  0
  4 12  1  0  0  0  0
  4 13  1  0  0  0  0
  5 14  2  0  0  0  0
  6 16  2  0  0  0  0
  7  9  1  0  0  0  0
  7 10  1  0  0  0  0
  7 11  1  0  0  0  0
  8 14  1  0  0  0  0
  8 16  1  0  0  0  0
  8 17  1  0  0  0  0
  9 13  1  0  0  0  0
 10 12  1  0  0  0  0
 11 14  1  0  0  0  0
 11 15  2  0  0  0  0
 15 16  1  0  0  0  0
 17 18  2  0  0  0  0
 17 19  1  0  0  0  0
 18 20  1  0  0  0  0
 19 21  2  0  0  0  0
 20 22  2  0  0  0  0
 21 22  1  0  0  0  0
M  END
> <From>
www.bindingDB.org

> <BindingDB Reactant_set_id>
51040205

> <Ligand InChI>
InChI=1S/C14H11Cl3N2O3/c15-8-2-1-3-9(10(8)16)19-13(20)11(17)12(14(19)21)18-4-6-22-7-5-18/h1-3H,4-7H2

> <Ligand InChI Key>
IJTLWZPUGZBFLA-UHFFFAOYSA-N

> <BindingDB MonomerID>
39128

> <BindingDB Ligand Name>
1-[2,3-bis(chloranyl)phenyl]-3-chloranyl-4-morpholin-4-yl-pyrrole-2,5-dione::3-chloro-1-(2,3-dichlorophenyl)-4-(4-morpholinyl)pyrrole-2,5-dione::3-chloro-1-(2,3-dichlorophenyl)-4-morpholin-4-ylpyrrole-2,5-dione::3-chloro-1-(2,3-dichlorophenyl)-4-morpholino-3-pyrroline-2,5-quinone::MLS-0067154.0001::cid_1049183

> <Target Name>
DNA repair protein RAD51 homolog 1

> <Target Source Organism According to Curator or DataSource>
Homo sapiens

> <Ki (nM)>


> <IC50 (nM)>
 14880

> <Kd (nM)>


> <EC50 (nM)>


> <kon (M-1-s-1)>


> <koff (s-1)>


> <pH>


> <Temp C>


> <Curation/DataSource>
ChEMBL

> <Article DOI>
10.1021/jm301565b

> <BindingDB Entry DOI>
10.7270/Q2VD70R1

> <PMID>
23231413

> <PubChem AID>


> <Patent Number>


> <Authors>
Budke, B; Kalin, JH; Pawlowski, M; Zelivianskaia, AS; Wu, M; Kozikowski, AP; Connell, PP

> <Date of publication>
1/10/2013

> <Date in BindingDB>
9/24/2013

> <Institution>
University of Chicago

> <Link to Ligand in BindingDB>
http://www.bindingdb.org/bind/chemsearch/marvin/MolStructure.jsp?monomerid=39128

> <Link to Ligand-Target Pair in BindingDB>
http://www.bindingdb.org/jsp/dbsearch/PrimarySearch_ki.jsp?energyterm=kJ/mole&tag=pol&polymerid=4676&target=DNA+repair+protein+RAD51+homolog+1&column=ki&startPg=0&Increment=50&submit=Search

> <Link to Ligand-Target Pair in BindingDB>
http://www.bindingdb.org/jsp/dbsearch/PrimarySearch_ki.jsp?energyterm=kJ/mole&tag=r21&monomerid=39128&enzyme=DNA+repair+protein+RAD51+homolog+1&column=ki&startPg=0&Increment=50&submit=Search

> <Ligand HET ID in PDB>


> <PDB ID(s) for Ligand-Target Complex>


> <PubChem CID of Ligand>
1049183

> <PubChem SID of Ligand>
252620027

> <ChEBI ID of Ligand>


> <ChEMBL ID of Ligand>


> <DrugBank ID of Ligand>


> <IUPHAR_GRAC ID of Ligand>


> <KEGG ID of Ligand>


> <ZINC ID of Ligand>
ZINC00726255

> <Number of Protein Chains in Target (bigger than 1 implies a multichain complex)>
1

> <BindingDB Target Chain Sequence>
MAMQMQLEANADTSVEEESFGPQPISRLEQCGINANDVKKLEEAGFHTVEAVAYAPKKELINIKGISEAKADKILAEAAKLVPMGFTTATEFHQRRSEIIQITTGSKELDKLLQGGIETGSITEMFGEFRTGKTQICHTLAVTCQLPIDRGGGEGKAMYIDTEGTFRPERLLAVAERYGLSGSDVLDNVAYARAFNTDHQTQLLYQASAMMVESRYALLIVDSATALYRTDYSGRGELSARQMHLARFLRMLLRLADEFGVAVVITNQVVAQVDGAAMFAADPKKPIGGNIIAHASTTRLYLRKGRGETRICKIYDSPCLPEAEAMFAINADGVGDAKD

> <PDB ID(s) of Target Chain>
1N0W,5JZC,5NP7,5NWL,8BQ2,8BR2,8BSC

> <UniProt (SwissProt) Recommended Name of Target Chain>
DNA repair protein RAD51 homolog 1

> <UniProt (SwissProt) Entry Name of Target Chain>
RAD51_HUMAN

> <UniProt (SwissProt) Primary ID of Target Chain>
Q06609

> <UniProt (SwissProt) Secondary ID(s) of Target Chain>
B0FXP0 B2R8T6 Q6FHX9 Q6ZNA8 Q9BV60

> <UniProt (SwissProt) Alternative ID(s) of Target Chain>


> <UniProt (TrEMBL) Submitted Name of Target Chain>


> <UniProt (TrEMBL) Entry Name of Target Chain>


> <UniProt (TrEMBL) Primary ID of Target Chain>


> <UniProt (TrEMBL) Secondary ID(s) of Target Chain>


> <UniProt (TrEMBL) Alternative ID(s) of Target Chain>


$$$$

  Mrv0541 11241415522D          

 21 23  0  0  0  0            999 V2000
   11.3815   -1.0708    0.0000 C   0  0  0  0  0  0  0  0  0  0  0  0
   11.3803   -1.8981    0.0000 C   0  0  0  0  0  0  0  0  0  0  0  0
   12.0951   -2.3110    0.0000 C   0  0  0  0  0  0  0  0  0  0  0  0
   12.8115   -1.8976    0.0000 C   0  0  0  0  0  0  0  0  0  0  0  0
   12.8087   -1.0672    0.0000 C   0  0  0  0  0  0  0  0  0  0  0  0
   12.0933   -0.6580    0.0000 C   0  0  0  0  0  0  0  0  0  0  0  0
   12.0935   -3.1349    0.0000 N   0  0  0  0  0  0  0  0  0  0  0  0
   11.4260   -3.6196    0.0000 C   0  0  0  0  0  0  0  0  0  0  0  0
   11.6807   -4.4043    0.0000 C   0  0  0  0  0  0  0  0  0  0  0  0
   12.5057   -4.4047    0.0000 C   0  0  0  0  0  0  0  0  0  0  0  0
   12.7608   -3.6199    0.0000 C   0  0  0  0  0  0  0  0  0  0  0  0
   12.9200   -5.1180    0.0000 N   0  0  0  0  0  0  0  0  0  0  0  0
   12.5058   -5.8325    0.0000 C   0  0  0  0  0  0  0  0  0  0  0  0
   12.9152   -6.5445    0.0000 C   0  0  0  0  0  0  0  0  0  0  0  0
   13.7406   -6.5482    0.0000 O   0  0  0  0  0  0  0  0  0  0  0  0
   14.1548   -5.8337    0.0000 C   0  0  0  0  0  0  0  0  0  0  0  0
   13.7437   -5.1154    0.0000 C   0  0  0  0  0  0  0  0  0  0  0  0
   13.5454   -3.3651    0.0000 O   0  0  0  0  0  0  0  0  0  0  0  0
   10.6415   -3.3645    0.0000 O   0  0  0  0  0  0  0  0  0  0  0  0
   11.1957   -5.0715    0.0000 Cl  0  0  0  0  0  0  0  0  0  0  0  0
   12.0908    0.1670    0.0000 Cl  0  0  0  0  0  0  0  0  0  0  0  0
  1  2  2  0  0  0  0
  2  3  1  0  0  0  0
  3  4  2  0  0  0  0
  4  5  1  0  0  0  0
  5  6  2  0  0  0  0
  6  1  1  0  0  0  0
  7  8  1  0  0  0  0
  8  9  1  0  0  0  0
  9 10  2  0  0  0  0
 10 11  1  0  0  0  0
 11  7  1  0  0  0  0
  3  7  1  0  0  0  0
 12 13  1  0  0  0  0
 12 17  1  0  0  0  0
 13 14  1  0  0  0  0
 14 15  1  0  0  0  0
 15 16  1  0  0  0  0
 16 17  1  0  0  0  0
 10 12  1  0  0  0  0
 11 18  2  0  0  0  0
  8 19  2  0  0  0  0
  9 20  1  0  0  0  0
  6 21  1  0  0  0  0
M  END
> <From>
www.bindingDB.org

> <BindingDB Reactant_set_id>
51040206

> <Ligand InChI>
InChI=1S/C14H12Cl2N2O3/c15-9-1-3-10(4-2-9)18-13(19)11(16)12(14(18)20)17-5-7-21-8-6-17/h1-4H,5-8H2

> <Ligand InChI Key>
KVGMCFLDNDDAHI-UHFFFAOYSA-N

> <BindingDB MonomerID>
50424509

> <BindingDB Ligand Name>
CHEMBL2316733

> <Target Name>
DNA repair protein RAD51 homolog 1

> <Target Source Organism According to Curator or DataSource>
Homo sapiens

> <Ki (nM)>


> <IC50 (nM)>
 38170

> <Kd (nM)>


> <EC50 (nM)>


> <kon (M-1-s-1)>


> <koff (s-1)>


> <pH>


> <Temp C>


> <Curation/DataSource>
ChEMBL

> <Article DOI>
10.1021/jm301565b

> <BindingDB Entry DOI>
10.7270/Q2VD70R1

> <PMID>
23231413

> <PubChem AID>


> <Patent Number>


> <Authors>
Budke, B; Kalin, JH; Pawlowski, M; Zelivianskaia, AS; Wu, M; Kozikowski, AP; Connell, PP

> <Date of publication>
1/10/2013

> <Date in BindingDB>
9/24/2013

> <Institution>
University of Chicago

> <Link to Ligand in BindingDB>
http://www.bindingdb.org/bind/chemsearch/marvin/MolStructure.jsp?monomerid=50424509

> <Link to Ligand-Target Pair in BindingDB>
http://www.bindingdb.org/jsp/dbsearch/PrimarySearch_ki.jsp?energyterm=kJ/mole&tag=pol&polymerid=4676&target=DNA+repair+protein+RAD51+homolog+1&column=ki&startPg=0&Increment=50&submit=Search

> <Link to Ligand-Target Pair in BindingDB>
http://www.bindingdb.org/jsp/dbsearch/PrimarySearch_ki.jsp?energyterm=kJ/mole&tag=r21&monomerid=50424509&enzyme=DNA+repair+protein+RAD51+homolog+1&column=ki&startPg=0&Increment=50&submit=Search

> <Ligand HET ID in PDB>


> <PDB ID(s) for Ligand-Target Complex>


> <PubChem CID of Ligand>
779728

> <PubChem SID of Ligand>
164153384

> <ChEBI ID of Ligand>


> <ChEMBL ID of Ligand>
CHEMBL2316733

> <DrugBank ID of Ligand>


> <IUPHAR_GRAC ID of Ligand>


> <KEGG ID of Ligand>


> <ZINC ID of Ligand>
ZINC00272543

> <Number of Protein Chains in Target (bigger than 1 implies a multichain complex)>
1

> <BindingDB Target Chain Sequence>
MAMQMQLEANADTSVEEESFGPQPISRLEQCGINANDVKKLEEAGFHTVEAVAYAPKKELINIKGISEAKADKILAEAAKLVPMGFTTATEFHQRRSEIIQITTGSKELDKLLQGGIETGSITEMFGEFRTGKTQICHTLAVTCQLPIDRGGGEGKAMYIDTEGTFRPERLLAVAERYGLSGSDVLDNVAYARAFNTDHQTQLLYQASAMMVESRYALLIVDSATALYRTDYSGRGELSARQMHLARFLRMLLRLADEFGVAVVITNQVVAQVDGAAMFAADPKKPIGGNIIAHASTTRLYLRKGRGETRICKIYDSPCLPEAEAMFAINADGVGDAKD

> <PDB ID(s) of Target Chain>
1N0W,5JZC,5NP7,5NWL,8BQ2,8BR2,8BSC

> <UniProt (SwissProt) Recommended Name of Target Chain>
DNA repair protein RAD51 homolog 1

> <UniProt (SwissProt) Entry Name of Target Chain>
RAD51_HUMAN

> <UniProt (SwissProt) Primary ID of Target Chain>
Q06609

> <UniProt (SwissProt) Secondary ID(s) of Target Chain>
B0FXP0 B2R8T6 Q6FHX9 Q6ZNA8 Q9BV60

> <UniProt (SwissProt) Alternative ID(s) of Target Chain>


> <UniProt (TrEMBL) Submitted Name of Target Chain>


> <UniProt (TrEMBL) Entry Name of Target Chain>


> <UniProt (TrEMBL) Primary ID of Target Chain>


> <UniProt (TrEMBL) Secondary ID(s) of Target Chain>


> <UniProt (TrEMBL) Alternative ID(s) of Target Chain>


$$$$
720237
  Mrv0541 11251415332D          

 20 22  0  0  0  0            999 V2000
    1.6500    0.2115    0.0000 Cl  0  0  0  0  0  0  0  0  0  0  0  0
    3.1021    2.9166    0.0000 O   0  0  0  0  0  0  0  0  0  0  0  0
    4.5542    0.2115    0.0000 O   0  0  0  0  0  0  0  0  0  0  0  0
    2.2047   -1.4954    0.0000 O   0  0  0  0  0  0  0  0  0  0  0  0
    3.1021    1.2665    0.0000 N   0  0  0  0  0  0  0  0  0  0  0  0
    3.5146   -0.8280    0.0000 N   0  0  0  0  0  0  0  0  0  0  0  0
    3.8166    1.6790    0.0000 C   0  0  0  0  0  0  0  0  0  0  0  0
    2.3876    1.6790    0.0000 C   0  0  0  0  0  0  0  0  0  0  0  0
    3.1021    0.4415    0.0000 C   0  0  0  0  0  0  0  0  0  0  0  0
    3.8166    2.5041    0.0000 C   0  0  0  0  0  0  0  0  0  0  0  0
    2.3876    2.5041    0.0000 C   0  0  0  0  0  0  0  0  0  0  0  0
    3.7695   -0.0434    0.0000 C   0  0  0  0  0  0  0  0  0  0  0  0
    2.4347   -0.0434    0.0000 C   0  0  0  0  0  0  0  0  0  0  0  0
    2.6896   -0.8280    0.0000 C   0  0  0  0  0  0  0  0  0  0  0  0
    3.9995   -1.4954    0.0000 C   0  0  0  0  0  0  0  0  0  0  0  0
    3.6639   -2.2491    0.0000 C   0  0  0  0  0  0  0  0  0  0  0  0
    4.8200   -1.4092    0.0000 C   0  0  0  0  0  0  0  0  0  0  0  0
    4.1489   -2.9166    0.0000 C   0  0  0  0  0  0  0  0  0  0  0  0
    5.3049   -2.0766    0.0000 C   0  0  0  0  0  0  0  0  0  0  0  0
    4.9693   -2.8303    0.0000 C   0  0  0  0  0  0  0  0  0  0  0  0
  1 13  1  0  0  0  0
  2 10  1  0  0  0  0
  2 11  1  0  0  0  0
  3 12  2  0  0  0  0
  4 14  2  0  0  0  0
  5  7  1  0  0  0  0
  5  8  1  0  0  0  0
  5  9  1  0  0  0  0
  6 12  1  0  0  0  0
  6 14  1  0  0  0  0
  6 15  1  0  0  0  0
  7 10  1  0  0  0  0
  8 11  1  0  0  0  0
  9 12  1  0  0  0  0
  9 13  2  0  0  0  0
 13 14  1  0  0  0  0
 15 16  2  0  0  0  0
 15 17  1  0  0  0  0
 16 18  1  0  0  0  0
 17 19  2  0  0  0  0
 18 20  2  0  0  0  0
 19 20  1  0  0  0  0
M  END
> <From>
www.bindingDB.org

> <BindingDB Reactant_set_id>
51040207

> <Ligand InChI>
InChI=1S/C14H13ClN2O3/c15-11-12(16-6-8-20-9-7-16)14(19)17(13(11)18)10-4-2-1-3-5-10/h1-5H,6-9H2

> <Ligand InChI Key>
VQEIJJHEAFTVHY-UHFFFAOYSA-N

> <BindingDB MonomerID>
33446

> <BindingDB Ligand Name>
3-Chloro-4-morpholin-4-yl-1-phenyl-pyrrole-2,5-dione::3-chloranyl-4-morpholin-4-yl-1-phenyl-pyrrole-2,5-dione::3-chloro-4-(4-morpholinyl)-1-phenylpyrrole-2,5-dione::3-chloro-4-morpholin-4-yl-1-phenylpyrrole-2,5-dione::3-chloro-4-morpholino-1-phenyl-3-pyrroline-2,5-quinone::MLS000526457::SMR000116931::cid_720237

> <Target Name>
DNA repair protein RAD51 homolog 1

> <Target Source Organism According to Curator or DataSource>
Homo sapiens

> <Ki (nM)>


> <IC50 (nM)>
 17850

> <Kd (nM)>


> <EC50 (nM)>


> <kon (M-1-s-1)>


> <koff (s-1)>


> <pH>


> <Temp C>


> <Curation/DataSource>
ChEMBL

> <Article DOI>
10.1021/jm301565b

> <BindingDB Entry DOI>
10.7270/Q2VD70R1

> <PMID>
23231413

> <PubChem AID>


> <Patent Number>


> <Authors>
Budke, B; Kalin, JH; Pawlowski, M; Zelivianskaia, AS; Wu, M; Kozikowski, AP; Connell, PP

> <Date of publication>
1/10/2013

> <Date in BindingDB>
9/24/2013

> <Institution>
University of Chicago

> <Link to Ligand in BindingDB>
http://www.bindingdb.org/bind/chemsearch/marvin/MolStructure.jsp?monomerid=33446

> <Link to Ligand-Target Pair in BindingDB>
http://www.bindingdb.org/jsp/dbsearch/PrimarySearch_ki.jsp?energyterm=kJ/mole&tag=pol&polymerid=4676&target=DNA+repair+protein+RAD51+homolog+1&column=ki&startPg=0&Increment=50&submit=Search

> <Link to Ligand-Target Pair in BindingDB>
http://www.bindingdb.org/jsp/dbsearch/PrimarySearch_ki.jsp?energyterm=kJ/mole&tag=r21&monomerid=33446&enzyme=DNA+repair+protein+RAD51+homolog+1&column=ki&startPg=0&Increment=50&submit=Search

> <Ligand HET ID in PDB>


> <PDB ID(s) for Ligand-Target Complex>


> <PubChem CID of Ligand>
720237

> <PubChem SID of Ligand>
252616354

> <ChEBI ID of Ligand>


> <ChEMBL ID of Ligand>


> <DrugBank ID of Ligand>


> <IUPHAR_GRAC ID of Ligand>


> <KEGG ID of Ligand>


> <ZINC ID of Ligand>
ZINC00121560

> <Number of Protein Chains in Target (bigger than 1 implies a multichain complex)>
1

> <BindingDB Target Chain Sequence>
MAMQMQLEANADTSVEEESFGPQPISRLEQCGINANDVKKLEEAGFHTVEAVAYAPKKELINIKGISEAKADKILAEAAKLVPMGFTTATEFHQRRSEIIQITTGSKELDKLLQGGIETGSITEMFGEFRTGKTQICHTLAVTCQLPIDRGGGEGKAMYIDTEGTFRPERLLAVAERYGLSGSDVLDNVAYARAFNTDHQTQLLYQASAMMVESRYALLIVDSATALYRTDYSGRGELSARQMHLARFLRMLLRLADEFGVAVVITNQVVAQVDGAAMFAADPKKPIGGNIIAHASTTRLYLRKGRGETRICKIYDSPCLPEAEAMFAINADGVGDAKD

> <PDB ID(s) of Target Chain>
1N0W,5JZC,5NP7,5NWL,8BQ2,8BR2,8BSC

> <UniProt (SwissProt) Recommended Name of Target Chain>
DNA repair protein RAD51 homolog 1

> <UniProt (SwissProt) Entry Name of Target Chain>
RAD51_HUMAN

> <UniProt (SwissProt) Primary ID of Target Chain>
Q06609

> <UniProt (SwissProt) Secondary ID(s) of Target Chain>
B0FXP0 B2R8T6 Q6FHX9 Q6ZNA8 Q9BV60

> <UniProt (SwissProt) Alternative ID(s) of Target Chain>


> <UniProt (TrEMBL) Submitted Name of Target Chain>


> <UniProt (TrEMBL) Entry Name of Target Chain>


> <UniProt (TrEMBL) Primary ID of Target Chain>


> <UniProt (TrEMBL) Secondary ID(s) of Target Chain>


> <UniProt (TrEMBL) Alternative ID(s) of Target Chain>


$$$$
1074953
  Mrv0541 11251415402D          

 22 24  0  0  0  0            999 V2000
    2.2047    1.9079    0.0000 Cl  0  0  0  0  0  0  0  0  0  0  0  0
    1.6731   -2.5041    0.0000 Cl  0  0  0  0  0  0  0  0  0  0  0  0
    3.1021   -3.3291    0.0000 Cl  0  0  0  0  0  0  0  0  0  0  0  0
    4.9693    3.2428    0.0000 O   0  0  0  0  0  0  0  0  0  0  0  0
    4.5542    0.2010    0.0000 O   0  0  0  0  0  0  0  0  0  0  0  0
    1.6500    0.2010    0.0000 O   0  0  0  0  0  0  0  0  0  0  0  0
    3.9995    1.9079    0.0000 N   0  0  0  0  0  0  0  0  0  0  0  0
    3.1021   -0.0290    0.0000 N   0  0  0  0  0  0  0  0  0  0  0  0
    4.8200    1.8217    0.0000 C   0  0  0  0  0  0  0  0  0  0  0  0
    3.6639    2.6616    0.0000 C   0  0  0  0  0  0  0  0  0  0  0  0
    3.5146    1.2405    0.0000 C   0  0  0  0  0  0  0  0  0  0  0  0
    4.1489    3.3291    0.0000 C   0  0  0  0  0  0  0  0  0  0  0  0
    5.3049    2.4891    0.0000 C   0  0  0  0  0  0  0  0  0  0  0  0
    3.7695    0.4559    0.0000 C   0  0  0  0  0  0  0  0  0  0  0  0
    2.6896    1.2405    0.0000 C   0  0  0  0  0  0  0  0  0  0  0  0
    2.4347    0.4559    0.0000 C   0  0  0  0  0  0  0  0  0  0  0  0
    3.1021   -0.8540    0.0000 C   0  0  0  0  0  0  0  0  0  0  0  0
    2.3876   -1.2665    0.0000 C   0  0  0  0  0  0  0  0  0  0  0  0
    3.8166   -1.2665    0.0000 C   0  0  0  0  0  0  0  0  0  0  0  0
    2.3876   -2.0916    0.0000 C   0  0  0  0  0  0  0  0  0  0  0  0
    3.8166   -2.0916    0.0000 C   0  0  0  0  0  0  0  0  0  0  0  0
    3.1021   -2.5041    0.0000 C   0  0  0  0  0  0  0  0  0  0  0  0
  1 15  1  0  0  0  0
  2 20  1  0  0  0  0
  3 22  1  0  0  0  0
  4 12  1  0  0  0  0
  4 13  1  0  0  0  0
  5 14  2  0  0  0  0
  6 16  2  0  0  0  0
  7  9  1  0  0  0  0
  7 10  1  0  0  0  0
  7 11  1  0  0  0  0
  8 14  1  0  0  0  0
  8 16  1  0  0  0  0
  8 17  1  0  0  0  0
  9 13  1  0  0  0  0
 10 12  1  0  0  0  0
 11 14  1  0  0  0  0
 11 15  2  0  0  0  0
 15 16  1  0  0  0  0
 17 18  2  0  0  0  0
 17 19  1  0  0  0  0
 18 20  1  0  0  0  0
 19 21  2  0  0  0  0
 20 22  2  0  0  0  0
 21 22  1  0  0  0  0
M  END
> <From>
www.bindingDB.org

> <BindingDB Reactant_set_id>
51040208

> <Ligand InChI>
InChI=1S/C14H11Cl3N2O3/c15-9-2-1-8(7-10(9)16)19-13(20)11(17)12(14(19)21)18-3-5-22-6-4-18/h1-2,7H,3-6H2

> <Ligand InChI Key>
MWSUIZKGNWELRF-UHFFFAOYSA-N

> <BindingDB MonomerID>
39120

> <BindingDB Ligand Name>
3-chloranyl-1-(3,4-dichlorophenyl)-4-morpholin-4-yl-pyrrole-2,5-dione::3-chloro-1-(3,4-dichlorophenyl)-4-(4-morpholinyl)pyrrole-2,5-dione::3-chloro-1-(3,4-dichlorophenyl)-4-morpholin-4-ylpyrrole-2,5-dione::3-chloro-1-(3,4-dichlorophenyl)-4-morpholino-3-pyrroline-2,5-quinone::MLS-0067124.0001::cid_1074953

> <Target Name>
DNA repair protein RAD51 homolog 1

> <Target Source Organism According to Curator or DataSource>
Homo sapiens

> <Ki (nM)>


> <IC50 (nM)>
 6820

> <Kd (nM)>


> <EC50 (nM)>


> <kon (M-1-s-1)>


> <koff (s-1)>


> <pH>


> <Temp C>


> <Curation/DataSource>
ChEMBL

> <Article DOI>
10.1021/jm301565b

> <BindingDB Entry DOI>
10.7270/Q2VD70R1

> <PMID>
23231413

> <PubChem AID>


> <Patent Number>


> <Authors>
Budke, B; Kalin, JH; Pawlowski, M; Zelivianskaia, AS; Wu, M; Kozikowski, AP; Connell, PP

> <Date of publication>
1/10/2013

> <Date in BindingDB>
9/24/2013

> <Institution>
University of Chicago

> <Link to Ligand in BindingDB>
http://www.bindingdb.org/bind/chemsearch/marvin/MolStructure.jsp?monomerid=39120

> <Link to Ligand-Target Pair in BindingDB>
http://www.bindingdb.org/jsp/dbsearch/PrimarySearch_ki.jsp?energyterm=kJ/mole&tag=pol&polymerid=4676&target=DNA+repair+protein+RAD51+homolog+1&column=ki&startPg=0&Increment=50&submit=Search

> <Link to Ligand-Target Pair in BindingDB>
http://www.bindingdb.org/jsp/dbsearch/PrimarySearch_ki.jsp?energyterm=kJ/mole&tag=r21&monomerid=39120&enzyme=DNA+repair+protein+RAD51+homolog+1&column=ki&startPg=0&Increment=50&submit=Search

> <Ligand HET ID in PDB>


> <PDB ID(s) for Ligand-Target Complex>


> <PubChem CID of Ligand>
1074953

> <PubChem SID of Ligand>
252620019

> <ChEBI ID of Ligand>


> <ChEMBL ID of Ligand>


> <DrugBank ID of Ligand>


> <IUPHAR_GRAC ID of Ligand>


> <KEGG ID of Ligand>


> <ZINC ID of Ligand>
ZINC00783201

> <Number of Protein Chains in Target (bigger than 1 implies a multichain complex)>
1

> <BindingDB Target Chain Sequence>
MAMQMQLEANADTSVEEESFGPQPISRLEQCGINANDVKKLEEAGFHTVEAVAYAPKKELINIKGISEAKADKILAEAAKLVPMGFTTATEFHQRRSEIIQITTGSKELDKLLQGGIETGSITEMFGEFRTGKTQICHTLAVTCQLPIDRGGGEGKAMYIDTEGTFRPERLLAVAERYGLSGSDVLDNVAYARAFNTDHQTQLLYQASAMMVESRYALLIVDSATALYRTDYSGRGELSARQMHLARFLRMLLRLADEFGVAVVITNQVVAQVDGAAMFAADPKKPIGGNIIAHASTTRLYLRKGRGETRICKIYDSPCLPEAEAMFAINADGVGDAKD

> <PDB ID(s) of Target Chain>
1N0W,5JZC,5NP7,5NWL,8BQ2,8BR2,8BSC

> <UniProt (SwissProt) Recommended Name of Target Chain>
DNA repair protein RAD51 homolog 1

> <UniProt (SwissProt) Entry Name of Target Chain>
RAD51_HUMAN

> <UniProt (SwissProt) Primary ID of Target Chain>
Q06609

> <UniProt (SwissProt) Secondary ID(s) of Target Chain>
B0FXP0 B2R8T6 Q6FHX9 Q6ZNA8 Q9BV60

> <UniProt (SwissProt) Alternative ID(s) of Target Chain>


> <UniProt (TrEMBL) Submitted Name of Target Chain>


> <UniProt (TrEMBL) Entry Name of Target Chain>


> <UniProt (TrEMBL) Primary ID of Target Chain>


> <UniProt (TrEMBL) Secondary ID(s) of Target Chain>


> <UniProt (TrEMBL) Alternative ID(s) of Target Chain>


$$$$

  Mrv0541 11241415252D          

220222  0  0  0  0            999 V2000
   -1.7711   -1.8211    0.0000 C   0  0  1  0  0  0  0  0  0  0  0  0
   -1.0460   -1.4045    0.0000 C   0  0  0  0  0  0  0  0  0  0  0  0
   -2.4755   -1.4128    0.0000 N   0  0  0  0  0  0  0  0  0  0  0  0
   11.8772   -1.3127    0.0000 C   0  0  0  0  0  0  0  0  0  0  0  0
   16.1864   -1.2794    0.0000 C   0  0  0  0  0  0  0  0  0  0  0  0
   33.4146   -1.1544    0.0000 C   0  0  0  0  0  0  0  0  0  0  0  0
   10.4395   -1.3210    0.0000 N   0  0  0  0  0  0  0  0  0  0  0  0
   31.9727   -1.1627    0.0000 N   0  0  0  0  0  0  0  0  0  0  0  0
   14.7445   -1.2877    0.0000 N   0  0  0  0  0  0  0  0  0  0  0  0
   -3.2048   -1.8336    0.0000 C   0  0  0  0  0  0  0  0  0  0  0  0
   24.7964   -1.2169    0.0000 C   0  0  0  0  0  0  0  0  0  0  0  0
   31.2517   -1.5836    0.0000 C   0  0  0  0  0  0  0  0  0  0  0  0
   14.0235   -1.7086    0.0000 C   0  0  0  0  0  0  0  0  0  0  0  0
    9.7143   -1.7378    0.0000 C   0  0  0  0  0  0  0  0  0  0  0  0
   37.7196   -1.1169    0.0000 C   0  0  0  0  0  0  0  0  0  0  0  0
   29.1055   -1.1877    0.0000 C   0  0  0  0  0  0  0  0  0  0  0  0
   44.1708   -1.4878    0.0000 C   0  0  0  0  0  0  0  0  0  0  0  0
   39.8700   -1.5211    0.0000 C   0  0  0  0  0  0  0  0  0  0  0  0
   42.0287   -1.0877    0.0000 C   0  0  0  0  0  0  0  0  0  0  0  0
   26.9426   -1.6128    0.0000 C   0  0  0  0  0  0  0  0  0  0  0  0
   -5.3510   -1.4336    0.0000 C   0  0  0  0  0  0  0  0  0  0  0  0
   22.6376   -1.6461    0.0000 C   0  0  0  0  0  0  0  0  0  0  0  0
    1.1002   -1.8003    0.0000 C   0  0  0  0  0  0  0  0  0  0  0  0
   35.5609   -1.5503    0.0000 C   0  0  0  0  0  0  0  0  0  0  0  0
   18.3285   -1.6753    0.0000 C   0  0  0  0  0  0  0  0  0  0  0  0
   20.4914   -1.2460    0.0000 C   0  0  0  0  0  0  0  0  0  0  0  0
  -11.8230   -1.8754    0.0000 C   0  0  0  0  0  0  0  0  0  0  0  0
    7.5681   -1.3420    0.0000 C   0  0  0  0  0  0  0  0  0  0  0  0
   23.3627   -1.2294    0.0000 N   0  0  0  0  0  0  0  0  0  0  0  0
    1.8295   -1.3836    0.0000 N   0  0  0  0  0  0  0  0  0  0  0  0
   24.0753   -1.6336    0.0000 C   0  0  1  0  0  0  0  0  0  0  0  0
   42.7373   -1.5003    0.0000 N   0  0  0  0  0  0  0  0  0  0  0  0
   27.6719   -1.1960    0.0000 N   0  0  0  0  0  0  0  0  0  0  0  0
   36.2861   -1.1335    0.0000 N   0  0  0  0  0  0  0  0  0  0  0  0
   25.5090   -1.6253    0.0000 N   0  0  0  0  0  0  0  0  0  0  0  0
   -4.6467   -1.8420    0.0000 N   0  0  0  0  0  0  0  0  0  0  0  0
   -0.3376   -1.8128    0.0000 N   0  0  0  0  0  0  0  0  0  0  0  0
    2.5338   -1.7920    0.0000 C   0  0  2  0  0  0  0  0  0  0  0  0
   40.5910   -1.1002    0.0000 N   0  0  0  0  0  0  0  0  0  0  0  0
   38.4281   -1.5295    0.0000 N   0  0  0  0  0  0  0  0  0  0  0  0
   11.1479   -1.7295    0.0000 C   0  0  1  0  0  0  0  0  0  0  0  0
   32.6854   -1.5711    0.0000 C   0  0  1  0  0  0  0  0  0  0  0  0
   15.4571   -1.6961    0.0000 C   0  0  1  0  0  0  0  0  0  0  0  0
   16.8949   -1.6878    0.0000 N   0  0  0  0  0  0  0  0  0  0  0  0
   12.5857   -1.7170    0.0000 N   0  0  0  0  0  0  0  0  0  0  0  0
  -11.1021   -1.4670    0.0000 N   0  0  0  0  0  0  0  0  0  0  0  0
   34.1231   -1.5628    0.0000 N   0  0  0  0  0  0  0  0  0  0  0  0
   36.9903   -1.5420    0.0000 C   0  0  1  0  0  0  0  0  0  0  0  0
   43.4582   -1.0752    0.0000 C   0  0  1  0  0  0  0  0  0  0  0  0
   28.3804   -1.6045    0.0000 C   0  0  1  0  0  0  0  0  0  0  0  0
   21.2040   -1.6545    0.0000 N   0  0  0  0  0  0  0  0  0  0  0  0
   44.9002   -1.0669    0.0000 N   0  0  0  0  0  0  0  0  0  0  0  0
   29.8139   -1.5920    0.0000 N   0  0  0  0  0  0  0  0  0  0  0  0
   19.0578   -1.2585    0.0000 N   0  0  0  0  0  0  0  0  0  0  0  0
    8.2808   -1.7503    0.0000 N   0  0  0  0  0  0  0  0  0  0  0  0
    3.2631   -1.3711    0.0000 C   0  0  0  0  0  0  0  0  0  0  0  0
   -3.9174   -1.4253    0.0000 C   0  0  1  0  0  0  0  0  0  0  0  0
   36.9903   -2.3587    0.0000 C   0  0  0  0  0  0  0  0  0  0  0  0
   43.4582   -0.2375    0.0000 C   0  0  0  0  0  0  0  0  0  0  0  0
   28.3804   -2.4213    0.0000 C   0  0  0  0  0  0  0  0  0  0  0  0
   -9.6601   -1.4628    0.0000 C   0  0  0  0  0  0  0  0  0  0  0  0
   41.3036   -1.5086    0.0000 C   0  0  1  0  0  0  0  0  0  0  0  0
   39.1574   -1.1085    0.0000 C   0  0  1  0  0  0  0  0  0  0  0  0
   26.2342   -1.2044    0.0000 C   0  0  1  0  0  0  0  0  0  0  0  0
   -1.9671    0.3043    0.0000 N   0  0  0  0  0  0  0  0  0  0  0  0
   -6.0761   -1.8546    0.0000 C   0  0  1  0  0  0  0  0  0  0  0  0
  -10.3812   -1.8796    0.0000 C   0  0  2  0  0  0  0  0  0  0  0  0
   -6.7930   -1.4461    0.0000 N   0  0  0  0  0  0  0  0  0  0  0  0
   46.3380   -1.0585    0.0000 C   0  0  0  0  0  0  0  0  0  0  0  0
   -3.2048   -0.1750    0.0000 C   0  0  0  0  0  0  0  0  0  0  0  0
    6.1304   -1.3503    0.0000 N   0  0  0  0  0  0  0  0  0  0  0  0
   21.9249   -1.2377    0.0000 C   0  0  1  0  0  0  0  0  0  0  0  0
   -3.9174   -0.5834    0.0000 C   0  0  0  0  0  0  0  0  0  0  0  0
   37.7196   -2.7797    0.0000 C   0  0  0  0  0  0  0  0  0  0  0  0
   44.1708    0.1708    0.0000 C   0  0  0  0  0  0  0  0  0  0  0  0
   -3.2506    0.6626    0.0000 N   0  0  0  0  0  0  0  0  0  0  0  0
   29.1055   -2.8463    0.0000 C   0  0  0  0  0  0  0  0  0  0  0  0
   45.6086   -1.4795    0.0000 C   0  0  2  0  0  0  0  0  0  0  0  0
   -7.5139   -1.8587    0.0000 C   0  0  0  0  0  0  0  0  0  0  0  0
    5.4093   -1.7711    0.0000 C   0  0  0  0  0  0  0  0  0  0  0  0
    3.9716   -1.7795    0.0000 N   0  0  0  0  0  0  0  0  0  0  0  0
   13.3150   -1.3002    0.0000 C   0  0  1  0  0  0  0  0  0  0  0  0
   -8.9475   -1.8712    0.0000 N   0  0  0  0  0  0  0  0  0  0  0  0
   17.6200   -1.2710    0.0000 C   0  0  1  0  0  0  0  0  0  0  0  0
    0.3918   -1.3920    0.0000 C   0  0  1  0  0  0  0  0  0  0  0  0
   30.5433   -1.1752    0.0000 C   0  0  1  0  0  0  0  0  0  0  0  0
    9.0100   -1.3295    0.0000 C   0  0  1  0  0  0  0  0  0  0  0  0
   34.8524   -1.1460    0.0000 C   0  0  1  0  0  0  0  0  0  0  0  0
   19.7662   -1.6670    0.0000 C   0  0  1  0  0  0  0  0  0  0  0  0
   -2.4797    0.9544    0.0000 C   0  0  0  0  0  0  0  0  0  0  0  0
    6.8430   -1.7586    0.0000 C   0  0  1  0  0  0  0  0  0  0  0  0
  -12.5357   -1.4670    0.0000 C   0  0  2  0  0  0  0  0  0  0  0  0
   22.6376    0.8544    0.0000 C   0  0  0  0  0  0  0  0  0  0  0  0
   46.3380   -3.5340    0.0000 C   0  0  0  0  0  0  0  0  0  0  0  0
   -2.4172   -0.3834    0.0000 C   0  0  0  0  0  0  0  0  0  0  0  0
   -1.0460   -0.5626    0.0000 O   0  0  0  0  0  0  0  0  0  0  0  0
   16.1864   -0.4418    0.0000 O   0  0  0  0  0  0  0  0  0  0  0  0
   11.8772   -0.4709    0.0000 O   0  0  0  0  0  0  0  0  0  0  0  0
   33.4146   -0.3168    0.0000 O   0  0  0  0  0  0  0  0  0  0  0  0
   24.7964   -0.3751    0.0000 O   0  0  0  0  0  0  0  0  0  0  0  0
   -3.2048   -2.6463    0.0000 O   0  0  0  0  0  0  0  0  0  0  0  0
    9.7143   -2.5588    0.0000 O   0  0  0  0  0  0  0  0  0  0  0  0
   31.2517   -2.4005    0.0000 O   0  0  0  0  0  0  0  0  0  0  0  0
   14.0235   -2.5255    0.0000 O   0  0  0  0  0  0  0  0  0  0  0  0
   26.9426   -2.4338    0.0000 O   0  0  0  0  0  0  0  0  0  0  0  0
   37.7196   -0.2793    0.0000 O   0  0  0  0  0  0  0  0  0  0  0  0
   42.0287   -0.2458    0.0000 O   0  0  0  0  0  0  0  0  0  0  0  0
   -5.3510   -0.5959    0.0000 O   0  0  0  0  0  0  0  0  0  0  0  0
   39.8700   -2.3379    0.0000 O   0  0  0  0  0  0  0  0  0  0  0  0
   29.1055   -0.3459    0.0000 O   0  0  0  0  0  0  0  0  0  0  0  0
   44.1708   -2.3087    0.0000 O   0  0  0  0  0  0  0  0  0  0  0  0
  -11.8230   -2.7088    0.0000 O   0  0  0  0  0  0  0  0  0  0  0  0
   20.4914   -0.4084    0.0000 O   0  0  0  0  0  0  0  0  0  0  0  0
   35.5609   -2.3712    0.0000 O   0  0  0  0  0  0  0  0  0  0  0  0
   18.3285   -2.4963    0.0000 O   0  0  0  0  0  0  0  0  0  0  0  0
    1.1002   -2.6213    0.0000 O   0  0  0  0  0  0  0  0  0  0  0  0
    7.5681   -0.5001    0.0000 O   0  0  0  0  0  0  0  0  0  0  0  0
   22.6376   -2.4630    0.0000 O   0  0  0  0  0  0  0  0  0  0  0  0
   41.3036   -2.3296    0.0000 C   0  0  0  0  0  0  0  0  0  0  0  0
   -6.0761   -2.6672    0.0000 C   0  0  0  0  0  0  0  0  0  0  0  0
    3.2631   -0.5334    0.0000 O   0  0  0  0  0  0  0  0  0  0  0  0
   -9.6601   -0.6251    0.0000 O   0  0  0  0  0  0  0  0  0  0  0  0
   46.3380   -0.2167    0.0000 O   0  0  0  0  0  0  0  0  0  0  0  0
   26.2342   -0.3668    0.0000 C   0  0  0  0  0  0  0  0  0  0  0  0
   39.1574   -0.2709    0.0000 C   0  0  0  0  0  0  0  0  0  0  0  0
  -10.3812   -2.7005    0.0000 C   0  0  0  0  0  0  0  0  0  0  0  0
   -1.7711   -2.6422    0.0000 C   0  0  2  0  0  0  0  0  0  0  0  0
   37.7196   -3.5965    0.0000 O   0  0  0  0  0  0  0  0  0  0  0  0
   44.1708    1.0085    0.0000 O   0  0  0  0  0  0  0  0  0  0  0  0
   29.1055   -3.6632    0.0000 O   0  0  0  0  0  0  0  0  0  0  0  0
    5.4093   -2.5880    0.0000 O   0  0  0  0  0  0  0  0  0  0  0  0
   -7.5139   -2.6797    0.0000 O   0  0  0  0  0  0  0  0  0  0  0  0
   23.3461    1.2585    0.0000 O   0  0  0  0  0  0  0  0  0  0  0  0
   47.0631   -3.9549    0.0000 O   0  0  0  0  0  0  0  0  0  0  0  0
  -12.5357   -0.6459    0.0000 C   0  0  0  0  0  0  0  0  0  0  0  0
   21.9249   -0.4001    0.0000 C   0  0  0  0  0  0  0  0  0  0  0  0
   45.6086   -2.2962    0.0000 C   0  0  0  0  0  0  0  0  0  0  0  0
   -8.2183   -1.4503    0.0000 C   0  0  0  0  0  0  0  0  0  0  0  0
    4.6967   -1.3628    0.0000 C   0  0  0  0  0  0  0  0  0  0  0  0
   32.6854   -2.3922    0.0000 C   0  0  0  0  0  0  0  0  0  0  0  0
   11.1479   -2.5463    0.0000 C   0  0  0  0  0  0  0  0  0  0  0  0
   15.4571   -2.5172    0.0000 C   0  0  2  0  0  0  0  0  0  0  0  0
   38.4490   -2.3587    0.0000 N   0  0  0  0  0  0  0  0  0  0  0  0
   22.6376    0.0125    0.0000 C   0  0  0  0  0  0  0  0  0  0  0  0
   46.3380   -2.7172    0.0000 C   0  0  0  0  0  0  0  0  0  0  0  0
  -13.2567   -1.8837    0.0000 N   0  0  0  0  0  0  0  0  0  0  0  0
   47.0464   -1.4670    0.0000 O   0  0  0  0  0  0  0  0  0  0  0  0
   44.8793   -0.2375    0.0000 O   0  0  0  0  0  0  0  0  0  0  0  0
   29.8348   -2.4213    0.0000 O   0  0  0  0  0  0  0  0  0  0  0  0
   45.6294   -3.9465    0.0000 O   0  0  0  0  0  0  0  0  0  0  0  0
   21.9083    1.2710    0.0000 O   0  0  0  0  0  0  0  0  0  0  0  0
   -5.3510   -3.0881    0.0000 C   0  0  0  0  0  0  0  0  0  0  0  0
   42.0287   -2.7463    0.0000 C   0  0  0  0  0  0  0  0  0  0  0  0
   24.0753   -2.4547    0.0000 C   0  0  0  0  0  0  0  0  0  0  0  0
    2.5338   -2.6088    0.0000 C   0  0  0  0  0  0  0  0  0  0  0  0
   21.2165   -4.9592    0.0000 N   0  0  0  0  0  0  0  0  0  0  0  0
    8.2974   -5.0510    0.0000 N   0  0  0  0  0  0  0  0  0  0  0  0
   14.7278    2.0379    0.0000 N   0  0  0  0  0  0  0  0  0  0  0  0
   10.4228    2.0087    0.0000 N   0  0  0  0  0  0  0  0  0  0  0  0
   36.2652    2.2004    0.0000 N   0  0  0  0  0  0  0  0  0  0  0  0
   31.9602    2.1629    0.0000 N   0  0  0  0  0  0  0  0  0  0  0  0
   -1.0460   -3.0589    0.0000 O   0  0  0  0  0  0  0  0  0  0  0  0
   24.7964   -2.8755    0.0000 O   0  0  0  0  0  0  0  0  0  0  0  0
    3.2631   -3.0256    0.0000 O   0  0  0  0  0  0  0  0  0  0  0  0
   -9.6560   -3.1214    0.0000 C   0  0  0  0  0  0  0  0  0  0  0  0
   26.9426    0.0458    0.0000 C   0  0  0  0  0  0  0  0  0  0  0  0
   39.8700    0.1375    0.0000 C   0  0  0  0  0  0  0  0  0  0  0  0
  -11.8272   -0.2333    0.0000 C   0  0  0  0  0  0  0  0  0  0  0  0
   34.8524   -0.3043    0.0000 C   0  0  0  0  0  0  0  0  0  0  0  0
    9.0100   -0.4918    0.0000 C   0  0  0  0  0  0  0  0  0  0  0  0
   30.5433   -0.3334    0.0000 C   0  0  0  0  0  0  0  0  0  0  0  0
   13.3150   -0.4584    0.0000 C   0  0  0  0  0  0  0  0  0  0  0  0
   19.7662   -2.4838    0.0000 C   0  0  0  0  0  0  0  0  0  0  0  0
    6.8430   -2.5797    0.0000 C   0  0  0  0  0  0  0  0  0  0  0  0
   17.6200   -0.4293    0.0000 C   0  0  0  0  0  0  0  0  0  0  0  0
    0.3918   -0.5543    0.0000 C   0  0  0  0  0  0  0  0  0  0  0  0
   31.9602    1.3253    0.0000 C   0  0  0  0  0  0  0  0  0  0  0  0
   21.2165   -4.1383    0.0000 C   0  0  0  0  0  0  0  0  0  0  0  0
   36.2652    1.3586    0.0000 C   0  0  0  0  0  0  0  0  0  0  0  0
    8.2974   -4.2341    0.0000 C   0  0  0  0  0  0  0  0  0  0  0  0
   14.7278    1.2002    0.0000 C   0  0  0  0  0  0  0  0  0  0  0  0
   10.4228    1.1669    0.0000 C   0  0  0  0  0  0  0  0  0  0  0  0
   14.7486   -2.9298    0.0000 C   0  0  0  0  0  0  0  0  0  0  0  0
   -2.4755   -3.0506    0.0000 C   0  0  0  0  0  0  0  0  0  0  0  0
   10.4395   -2.9589    0.0000 C   0  0  0  0  0  0  0  0  0  0  0  0
   33.4146   -2.8130    0.0000 C   0  0  0  0  0  0  0  0  0  0  0  0
   31.9727   -2.8047    0.0000 C   0  0  0  0  0  0  0  0  0  0  0  0
   11.8772   -2.9714    0.0000 C   0  0  0  0  0  0  0  0  0  0  0  0
   16.1864   -2.9381    0.0000 C   0  0  0  0  0  0  0  0  0  0  0  0
   -5.3385   -3.9090    0.0000 C   0  0  0  0  0  0  0  0  0  0  0  0
   42.7456   -2.3171    0.0000 C   0  0  0  0  0  0  0  0  0  0  0  0
   -4.6342   -2.6630    0.0000 C   0  0  0  0  0  0  0  0  0  0  0  0
   42.0412   -3.5632    0.0000 C   0  0  0  0  0  0  0  0  0  0  0  0
   31.2517    0.0750    0.0000 C   0  0  0  0  0  0  0  0  0  0  0  0
    9.7143   -0.0792    0.0000 C   0  0  0  0  0  0  0  0  0  0  0  0
   14.0235   -0.0500    0.0000 C   0  0  0  0  0  0  0  0  0  0  0  0
    7.5681   -3.0006    0.0000 C   0  0  0  0  0  0  0  0  0  0  0  0
   20.4914   -2.9047    0.0000 C   0  0  0  0  0  0  0  0  0  0  0  0
   35.5609    0.1083    0.0000 C   0  0  0  0  0  0  0  0  0  0  0  0
    9.7143    0.7584    0.0000 C   0  0  0  0  0  0  0  0  0  0  0  0
    7.5681   -3.8132    0.0000 C   0  0  0  0  0  0  0  0  0  0  0  0
   20.4914   -3.7257    0.0000 C   0  0  0  0  0  0  0  0  0  0  0  0
   14.0235    0.7918    0.0000 C   0  0  0  0  0  0  0  0  0  0  0  0
   31.2517    0.9169    0.0000 C   0  0  0  0  0  0  0  0  0  0  0  0
   35.5609    0.9460    0.0000 C   0  0  0  0  0  0  0  0  0  0  0  0
  -11.1146   -0.6501    0.0000 C   0  0  0  0  0  0  0  0  0  0  0  0
   -9.6560   -3.9382    0.0000 C   0  0  0  0  0  0  0  0  0  0  0  0
   -8.9309   -2.7005    0.0000 C   0  0  0  0  0  0  0  0  0  0  0  0
   26.9426    0.8835    0.0000 C   0  0  0  0  0  0  0  0  0  0  0  0
   39.8700    0.9794    0.0000 C   0  0  0  0  0  0  0  0  0  0  0  0
   40.5744   -0.2709    0.0000 C   0  0  0  0  0  0  0  0  0  0  0  0
   27.6552   -0.3668    0.0000 C   0  0  0  0  0  0  0  0  0  0  0  0
  -11.8272    0.6043    0.0000 C   0  0  0  0  0  0  0  0  0  0  0  0
   14.7486   -3.7674    0.0000 C   0  0  0  0  0  0  0  0  0  0  0  0
   43.4624   -2.7255    0.0000 C   0  0  0  0  0  0  0  0  0  0  0  0
   42.7581   -3.9758    0.0000 C   0  0  0  0  0  0  0  0  0  0  0  0
   -3.9132   -3.0673    0.0000 C   0  0  0  0  0  0  0  0  0  0  0  0
   -4.6217   -4.3133    0.0000 C   0  0  0  0  0  0  0  0  0  0  0  0
   43.4707   -3.5507    0.0000 C   0  0  0  0  0  0  0  0  0  0  0  0
   -3.9090   -3.9007    0.0000 C   0  0  0  0  0  0  0  0  0  0  0  0
  1  2  1  0  0  0  0
  1  3  1  6  0  0  0
 41  4  1  0  0  0  0
 43  5  1  0  0  0  0
 42  6  1  0  0  0  0
  7 14  1  0  0  0  0
  8 12  1  0  0  0  0
  9 13  1  0  0  0  0
 10  3  1  0  0  0  0
 31 11  1  0  0  0  0
 86 12  1  0  0  0  0
 82 13  1  0  0  0  0
 87 14  1  0  0  0  0
 48 15  1  0  0  0  0
 50 16  1  0  0  0  0
 49 17  1  0  0  0  0
 63 18  1  0  0  0  0
 62 19  1  0  0  0  0
 64 20  1  0  0  0  0
 21 36  1  0  0  0  0
 72 22  1  0  0  0  0
 85 23  1  0  0  0  0
 88 24  1  0  0  0  0
 84 25  1  0  0  0  0
 89 26  1  0  0  0  0
 27 46  1  0  0  0  0
 91 28  1  0  0  0  0
 29 22  1  0  0  0  0
 30 23  1  0  0  0  0
 31 29  1  6  0  0  0
 32 19  1  0  0  0  0
 33 20  1  0  0  0  0
 34 24  1  0  0  0  0
 35 11  1  0  0  0  0
 57 36  1  1  0  0  0
 37  2  1  0  0  0  0
 38 30  1  6  0  0  0
 39 18  1  0  0  0  0
 40 15  1  0  0  0  0
 41  7  1  6  0  0  0
 42  8  1  6  0  0  0
 43  9  1  6  0  0  0
 44  5  1  0  0  0  0
 45  4  1  0  0  0  0
 67 46  1  6  0  0  0
 47  6  1  0  0  0  0
 48 34  1  6  0  0  0
 49 32  1  1  0  0  0
 50 33  1  6  0  0  0
 51 26  1  0  0  0  0
 52 17  1  0  0  0  0
 53 16  1  0  0  0  0
 54 25  1  0  0  0  0
 55 28  1  0  0  0  0
 38 56  1  0  0  0  0
 57 10  1  0  0  0  0
 48 58  1  0  0  0  0
 49 59  1  0  0  0  0
 50 60  1  0  0  0  0
 61 83  1  0  0  0  0
 62 39  1  6  0  0  0
 63 40  1  1  0  0  0
 64 35  1  1  0  0  0
 65 95  1  0  0  0  0
 66 21  1  0  0  0  0
 67 61  1  0  0  0  0
 66 68  1  6  0  0  0
 78 69  1  0  0  0  0
 70 73  1  0  0  0  0
 71 80  1  0  0  0  0
 72 51  1  1  0  0  0
 57 73  1  0  0  0  0
 74 58  1  0  0  0  0
 75 59  1  0  0  0  0
 76 70  1  0  0  0  0
 77 60  1  0  0  0  0
 78 52  1  6  0  0  0
 79 68  1  0  0  0  0
 80139  1  0  0  0  0
 81 56  1  0  0  0  0
 82 45  1  1  0  0  0
 83138  1  0  0  0  0
 84 44  1  0  0  0  0
 85 37  1  0  0  0  0
 86 53  1  1  0  0  0
 87 55  1  1  0  0  0
 88 47  1  1  0  0  0
 89 54  1  6  0  0  0
 90 76  1  0  0  0  0
 91 71  1  6  0  0  0
 92 27  1  0  0  0  0
 93144  1  0  0  0  0
 94145  1  0  0  0  0
 95 70  2  0  0  0  0
 96  2  2  0  0  0  0
 97  5  2  0  0  0  0
 98  4  2  0  0  0  0
 99  6  2  0  0  0  0
100 11  2  0  0  0  0
101 10  2  0  0  0  0
102 14  2  0  0  0  0
103 12  2  0  0  0  0
104 13  2  0  0  0  0
105 20  2  0  0  0  0
106 15  2  0  0  0  0
107 19  2  0  0  0  0
108 21  2  0  0  0  0
109 18  2  0  0  0  0
110 16  2  0  0  0  0
111 17  2  0  0  0  0
112 27  2  0  0  0  0
113 26  2  0  0  0  0
114 24  2  0  0  0  0
115 25  2  0  0  0  0
116 23  2  0  0  0  0
117 28  2  0  0  0  0
118 22  2  0  0  0  0
 62119  1  0  0  0  0
 66120  1  0  0  0  0
121 56  2  0  0  0  0
122 61  2  0  0  0  0
123 69  2  0  0  0  0
 64124  1  0  0  0  0
 63125  1  0  0  0  0
 67126  1  0  0  0  0
  1127  1  0  0  0  0
128 74  2  0  0  0  0
129 75  2  0  0  0  0
130 77  2  0  0  0  0
131 80  2  0  0  0  0
132 79  2  0  0  0  0
133 93  2  0  0  0  0
134 94  2  0  0  0  0
 92135  1  0  0  0  0
 72136  1  0  0  0  0
 78137  1  0  0  0  0
138 79  1  0  0  0  0
139 81  1  0  0  0  0
 42140  1  0  0  0  0
 41141  1  0  0  0  0
 43142  1  0  0  0  0
143 74  1  0  0  0  0
144136  1  0  0  0  0
145137  1  0  0  0  0
 92146  1  1  0  0  0
147 69  1  0  0  0  0
148 75  1  0  0  0  0
149 77  1  0  0  0  0
150 94  1  0  0  0  0
151 93  1  0  0  0  0
152120  1  0  0  0  0
153119  1  0  0  0  0
 31154  1  0  0  0  0
 38155  1  0  0  0  0
156178  1  0  0  0  0
157180  1  0  0  0  0
158181  1  0  0  0  0
159182  1  0  0  0  0
160179  1  0  0  0  0
161177  1  0  0  0  0
127162  1  6  0  0  0
163154  1  0  0  0  0
164155  1  0  0  0  0
165126  1  0  0  0  0
166124  1  0  0  0  0
167125  1  0  0  0  0
168135  1  0  0  0  0
 88169  1  0  0  0  0
 87170  1  0  0  0  0
 86171  1  0  0  0  0
 82172  1  0  0  0  0
 89173  1  0  0  0  0
 91174  1  0  0  0  0
 84175  1  1  0  0  0
 85176  1  1  0  0  0
177204  1  0  0  0  0
178202  1  0  0  0  0
179205  1  0  0  0  0
180201  1  0  0  0  0
181203  1  0  0  0  0
182200  1  0  0  0  0
142183  1  0  0  0  0
127184  1  0  0  0  0
185141  1  0  0  0  0
186140  1  0  0  0  0
187140  1  0  0  0  0
188141  1  0  0  0  0
142189  1  1  0  0  0
190152  2  0  0  0  0
191153  2  0  0  0  0
192152  1  0  0  0  0
193153  1  0  0  0  0
194171  1  0  0  0  0
195170  1  0  0  0  0
196172  1  0  0  0  0
197174  1  0  0  0  0
198173  1  0  0  0  0
199169  1  0  0  0  0
200195  1  0  0  0  0
201197  1  0  0  0  0
202198  1  0  0  0  0
203196  1  0  0  0  0
204194  1  0  0  0  0
205199  1  0  0  0  0
206168  1  0  0  0  0
207165  1  0  0  0  0
208165  1  0  0  0  0
209166  1  0  0  0  0
210167  1  0  0  0  0
211167  1  0  0  0  0
212166  1  0  0  0  0
213168  1  0  0  0  0
214183  1  0  0  0  0
215191  1  0  0  0  0
216193  2  0  0  0  0
217192  2  0  0  0  0
218190  1  0  0  0  0
219215  2  0  0  0  0
220217  1  0  0  0  0
 65 90  2  0  0  0  0
218220  2  0  0  0  0
216219  1  0  0  0  0
M  END
> <From>
www.bindingDB.org

> <BindingDB Reactant_set_id>
51016948

> <Ligand InChI>
InChI=1S/C142H235N37O41/c1-18-79(14)115(178-128(205)92(46-30-36-56-148)164-139(216)114(78(12)13)176-126(203)90(44-28-34-54-146)160-122(199)87(41-25-31-51-143)157-107(184)68-153-121(198)104(70-180)174-118(195)81(16)156-141(218)116(82(17)182)179-136(213)100(63-85-67-151-72-154-85)170-131(208)98(61-83-37-21-19-22-38-83)158-108(185)69-152-120(197)95(58-74(4)5)166-119(196)86(149)57-73(2)3)140(217)155-80(15)117(194)159-88(42-26-32-52-144)123(200)162-93(47-49-109(186)187)125(202)175-105(71-181)137(214)168-97(60-76(8)9)130(207)172-102(65-111(190)191)134(211)161-91(45-29-35-55-147)127(204)177-113(77(10)11)138(215)163-89(43-27-33-53-145)124(201)171-101(64-106(150)183)133(210)167-96(59-75(6)7)129(206)169-99(62-84-39-23-20-24-40-84)132(209)173-103(66-112(192)193)135(212)165-94(142(219)220)48-50-110(188)189/h19-24,37-40,67,72-82,86-105,113-116,180-182H,18,25-36,41-66,68-71,143-149H2,1-17H3,(H2,150,183)(H,151,154)(H,152,197)(H,153,198)(H,155,217)(H,156,218)(H,157,184)(H,158,185)(H,159,194)(H,160,199)(H,161,211)(H,162,200)(H,163,215)(H,164,216)(H,165,212)(H,166,196)(H,167,210)(H,168,214)(H,169,206)(H,170,208)(H,171,201)(H,172,207)(H,173,209)(H,174,195)(H,175,202)(H,176,203)(H,177,204)(H,178,205)(H,179,213)(H,186,187)(H,188,189)(H,190,191)(H,192,193)(H,219,220)/t79-,80-,81-,82+,86-,87-,88-,89-,90-,91-,92-,93-,94-,95-,96-,97-,98-,99-,100-,101-,102-,103-,104-,105-,113-,114-,115-,116-/m0/s1

> <Ligand InChI Key>
VMIQHNLTGYOPMU-VARSZRCOSA-N

> <BindingDB MonomerID>
50416561

> <BindingDB Ligand Name>
CHEMBL1215810

> <Target Name>
DNA repair protein RAD51 homolog 1

> <Target Source Organism According to Curator or DataSource>
Homo sapiens

> <Ki (nM)>


> <IC50 (nM)>
 2100

> <Kd (nM)>


> <EC50 (nM)>


> <kon (M-1-s-1)>


> <koff (s-1)>


> <pH>


> <Temp C>


> <Curation/DataSource>
ChEMBL

> <Article DOI>
10.1021/jm1002974

> <BindingDB Entry DOI>
10.7270/Q2NG4RV5

> <PMID>
20684611

> <PubChem AID>


> <Patent Number>


> <Authors>
Nomme, J; Renodon-Corniere, A; Asanomi, Y; Sakaguchi, K; Stasiak, AZ; Stasiak, A; Norden, B; Tran, V; Takahashi, M

> <Date of publication>
8/5/2010

> <Date in BindingDB>
5/22/2013

> <Institution>
Centre National de la Recherche Scientifique & Universite de Nantes

> <Link to Ligand in BindingDB>
http://www.bindingdb.org/bind/chemsearch/marvin/MolStructure.jsp?monomerid=50416561

> <Link to Ligand-Target Pair in BindingDB>
http://www.bindingdb.org/jsp/dbsearch/PrimarySearch_ki.jsp?energyterm=kJ/mole&tag=pol&polymerid=4676&target=DNA+repair+protein+RAD51+homolog+1&column=ki&startPg=0&Increment=50&submit=Search

> <Link to Ligand-Target Pair in BindingDB>
http://www.bindingdb.org/jsp/dbsearch/PrimarySearch_ki.jsp?energyterm=kJ/mole&tag=r21&monomerid=50416561&enzyme=DNA+repair+protein+RAD51+homolog+1&column=ki&startPg=0&Increment=50&submit=Search

> <Ligand HET ID in PDB>


> <PDB ID(s) for Ligand-Target Complex>


> <PubChem CID of Ligand>
46919033

> <PubChem SID of Ligand>
163365585

> <ChEBI ID of Ligand>


> <ChEMBL ID of Ligand>
CHEMBL1215810

> <DrugBank ID of Ligand>


> <IUPHAR_GRAC ID of Ligand>


> <KEGG ID of Ligand>


> <ZINC ID of Ligand>


> <Number of Protein Chains in Target (bigger than 1 implies a multichain complex)>
1

> <BindingDB Target Chain Sequence>
MAMQMQLEANADTSVEEESFGPQPISRLEQCGINANDVKKLEEAGFHTVEAVAYAPKKELINIKGISEAKADKILAEAAKLVPMGFTTATEFHQRRSEIIQITTGSKELDKLLQGGIETGSITEMFGEFRTGKTQICHTLAVTCQLPIDRGGGEGKAMYIDTEGTFRPERLLAVAERYGLSGSDVLDNVAYARAFNTDHQTQLLYQASAMMVESRYALLIVDSATALYRTDYSGRGELSARQMHLARFLRMLLRLADEFGVAVVITNQVVAQVDGAAMFAADPKKPIGGNIIAHASTTRLYLRKGRGETRICKIYDSPCLPEAEAMFAINADGVGDAKD

> <PDB ID(s) of Target Chain>
1N0W,5JZC,5NP7,5NWL,8BQ2,8BR2,8BSC

> <UniProt (SwissProt) Recommended Name of Target Chain>
DNA repair protein RAD51 homolog 1

> <UniProt (SwissProt) Entry Name of Target Chain>
RAD51_HUMAN

> <UniProt (SwissProt) Primary ID of Target Chain>
Q06609

> <UniProt (SwissProt) Secondary ID(s) of Target Chain>
B0FXP0 B2R8T6 Q6FHX9 Q6ZNA8 Q9BV60

> <UniProt (SwissProt) Alternative ID(s) of Target Chain>


> <UniProt (TrEMBL) Submitted Name of Target Chain>


> <UniProt (TrEMBL) Entry Name of Target Chain>


> <UniProt (TrEMBL) Primary ID of Target Chain>


> <UniProt (TrEMBL) Secondary ID(s) of Target Chain>


> <UniProt (TrEMBL) Alternative ID(s) of Target Chain>


$$$$

  Mrv0541 11241415252D          

204206  0  0  0  0            999 V2000
   -6.4750   -9.0292    0.0000 C   0  0  1  0  0  0  0  0  0  0  0  0
   -5.7500   -8.6125    0.0000 C   0  0  0  0  0  0  0  0  0  0  0  0
   -7.1875   -8.6208    0.0000 N   0  0  0  0  0  0  0  0  0  0  0  0
    7.1625   -8.5167    0.0000 C   0  0  0  0  0  0  0  0  0  0  0  0
   11.4625   -8.4917    0.0000 C   0  0  0  0  0  0  0  0  0  0  0  0
   28.6792   -8.3667    0.0000 C   0  0  0  0  0  0  0  0  0  0  0  0
    5.7208   -8.5333    0.0000 N   0  0  0  0  0  0  0  0  0  0  0  0
   27.2417   -8.3750    0.0000 N   0  0  0  0  0  0  0  0  0  0  0  0
   10.0292   -8.5000    0.0000 N   0  0  0  0  0  0  0  0  0  0  0  0
   -7.9167   -9.0417    0.0000 C   0  0  0  0  0  0  0  0  0  0  0  0
   20.0667   -8.4292    0.0000 C   0  0  0  0  0  0  0  0  0  0  0  0
   26.5167   -8.7958    0.0000 C   0  0  0  0  0  0  0  0  0  0  0  0
    9.3042   -8.9208    0.0000 C   0  0  0  0  0  0  0  0  0  0  0  0
    4.9958   -8.9500    0.0000 C   0  0  0  0  0  0  0  0  0  0  0  0
   32.9792   -8.3333    0.0000 C   0  0  0  0  0  0  0  0  0  0  0  0
   24.3708   -8.3958    0.0000 C   0  0  0  0  0  0  0  0  0  0  0  0
   39.4250   -8.7000    0.0000 C   0  0  0  0  0  0  0  0  0  0  0  0
   35.1250   -8.7333    0.0000 C   0  0  0  0  0  0  0  0  0  0  0  0
   37.2833   -8.3042    0.0000 C   0  0  0  0  0  0  0  0  0  0  0  0
   22.2125   -8.8250    0.0000 C   0  0  0  0  0  0  0  0  0  0  0  0
  -10.0542   -8.6458    0.0000 C   0  0  0  0  0  0  0  0  0  0  0  0
   17.9083   -8.8583    0.0000 C   0  0  0  0  0  0  0  0  0  0  0  0
   -3.6083   -9.0125    0.0000 C   0  0  0  0  0  0  0  0  0  0  0  0
   30.8208   -8.7625    0.0000 C   0  0  0  0  0  0  0  0  0  0  0  0
   13.6042   -8.8875    0.0000 C   0  0  0  0  0  0  0  0  0  0  0  0
   15.7667   -8.4583    0.0000 C   0  0  0  0  0  0  0  0  0  0  0  0
    2.8542   -8.5542    0.0000 C   0  0  0  0  0  0  0  0  0  0  0  0
   18.6333   -8.4375    0.0000 N   0  0  0  0  0  0  0  0  0  0  0  0
   -2.8833   -8.5917    0.0000 N   0  0  0  0  0  0  0  0  0  0  0  0
   19.3417   -8.8458    0.0000 C   0  0  1  0  0  0  0  0  0  0  0  0
   37.9917   -8.7125    0.0000 N   0  0  0  0  0  0  0  0  0  0  0  0
   22.9375   -8.4083    0.0000 N   0  0  0  0  0  0  0  0  0  0  0  0
   31.5458   -8.3458    0.0000 N   0  0  0  0  0  0  0  0  0  0  0  0
   20.7750   -8.8375    0.0000 N   0  0  0  0  0  0  0  0  0  0  0  0
   -9.3458   -9.0542    0.0000 N   0  0  0  0  0  0  0  0  0  0  0  0
   -5.0417   -9.0250    0.0000 N   0  0  0  0  0  0  0  0  0  0  0  0
   -2.1750   -9.0042    0.0000 C   0  0  2  0  0  0  0  0  0  0  0  0
   35.8500   -8.3125    0.0000 N   0  0  0  0  0  0  0  0  0  0  0  0
   33.6875   -8.7417    0.0000 N   0  0  0  0  0  0  0  0  0  0  0  0
    6.4292   -8.9417    0.0000 C   0  0  1  0  0  0  0  0  0  0  0  0
   27.9500   -8.7833    0.0000 C   0  0  1  0  0  0  0  0  0  0  0  0
   10.7375   -8.9083    0.0000 C   0  0  1  0  0  0  0  0  0  0  0  0
   12.1708   -8.9000    0.0000 N   0  0  0  0  0  0  0  0  0  0  0  0
   29.3875   -8.7750    0.0000 N   0  0  0  0  0  0  0  0  0  0  0  0
    7.8625   -8.9292    0.0000 N   0  0  0  0  0  0  0  0  0  0  0  0
   32.2542   -8.7542    0.0000 C   0  0  1  0  0  0  0  0  0  0  0  0
   38.7167   -8.2917    0.0000 C   0  0  1  0  0  0  0  0  0  0  0  0
   23.6500   -8.8167    0.0000 C   0  0  1  0  0  0  0  0  0  0  0  0
   16.4750   -8.8667    0.0000 N   0  0  0  0  0  0  0  0  0  0  0  0
   40.1500   -8.2833    0.0000 N   0  0  0  0  0  0  0  0  0  0  0  0
   25.0833   -8.8042    0.0000 N   0  0  0  0  0  0  0  0  0  0  0  0
   14.3333   -8.4708    0.0000 N   0  0  0  0  0  0  0  0  0  0  0  0
    3.5625   -8.9625    0.0000 N   0  0  0  0  0  0  0  0  0  0  0  0
   -1.4500   -8.5792    0.0000 C   0  0  0  0  0  0  0  0  0  0  0  0
   -8.6208   -8.6333    0.0000 C   0  0  1  0  0  0  0  0  0  0  0  0
   32.2542   -9.5708    0.0000 C   0  0  0  0  0  0  0  0  0  0  0  0
   38.7167   -7.4542    0.0000 C   0  0  0  0  0  0  0  0  0  0  0  0
   23.6500   -9.6333    0.0000 C   0  0  0  0  0  0  0  0  0  0  0  0
   36.5583   -8.7208    0.0000 C   0  0  1  0  0  0  0  0  0  0  0  0
   34.4125   -8.3250    0.0000 C   0  0  1  0  0  0  0  0  0  0  0  0
   21.5042   -8.4167    0.0000 C   0  0  1  0  0  0  0  0  0  0  0  0
   -6.6458   -6.9792    0.0000 N   0  0  0  0  0  0  0  0  0  0  0  0
  -10.7750   -9.0583    0.0000 C   0  0  1  0  0  0  0  0  0  0  0  0
  -11.4917   -8.6458    0.0000 N   0  0  0  0  0  0  0  0  0  0  0  0
   41.5833   -8.2708    0.0000 C   0  0  0  0  0  0  0  0  0  0  0  0
   -7.9167   -7.3875    0.0000 C   0  0  0  0  0  0  0  0  0  0  0  0
    1.4208   -8.5583    0.0000 N   0  0  0  0  0  0  0  0  0  0  0  0
   17.2000   -8.4500    0.0000 C   0  0  1  0  0  0  0  0  0  0  0  0
   -8.6208   -7.7958    0.0000 C   0  0  0  0  0  0  0  0  0  0  0  0
   32.9792   -9.9875    0.0000 C   0  0  0  0  0  0  0  0  0  0  0  0
   39.4250   -7.0417    0.0000 C   0  0  0  0  0  0  0  0  0  0  0  0
   -7.9042   -6.5500    0.0000 N   0  0  0  0  0  0  0  0  0  0  0  0
   24.3708  -10.0542    0.0000 C   0  0  0  0  0  0  0  0  0  0  0  0
   40.8625   -8.6917    0.0000 C   0  0  2  0  0  0  0  0  0  0  0  0
    0.6917   -8.9833    0.0000 C   0  0  0  0  0  0  0  0  0  0  0  0
   -0.7417   -8.9917    0.0000 N   0  0  0  0  0  0  0  0  0  0  0  0
    8.5958   -8.5125    0.0000 C   0  0  1  0  0  0  0  0  0  0  0  0
   12.8958   -8.4792    0.0000 C   0  0  1  0  0  0  0  0  0  0  0  0
   -4.3167   -8.6000    0.0000 C   0  0  1  0  0  0  0  0  0  0  0  0
   25.8083   -8.3875    0.0000 C   0  0  1  0  0  0  0  0  0  0  0  0
    4.2875   -8.5375    0.0000 C   0  0  1  0  0  0  0  0  0  0  0  0
   30.1125   -8.3542    0.0000 C   0  0  1  0  0  0  0  0  0  0  0  0
   15.0417   -8.8792    0.0000 C   0  0  1  0  0  0  0  0  0  0  0  0
   -7.1208   -6.3042    0.0000 C   0  0  0  0  0  0  0  0  0  0  0  0
  -12.2125   -9.0583    0.0000 C   0  0  0  0  0  0  0  0  0  0  0  0
    2.1292   -8.9708    0.0000 C   0  0  1  0  0  0  0  0  0  0  0  0
   17.9083   -6.3583    0.0000 C   0  0  0  0  0  0  0  0  0  0  0  0
   41.5833  -10.7458    0.0000 C   0  0  0  0  0  0  0  0  0  0  0  0
   -7.1333   -7.6375    0.0000 C   0  0  0  0  0  0  0  0  0  0  0  0
   -5.7500   -7.7750    0.0000 O   0  0  0  0  0  0  0  0  0  0  0  0
   11.4625   -7.6500    0.0000 O   0  0  0  0  0  0  0  0  0  0  0  0
    7.1625   -7.6792    0.0000 O   0  0  0  0  0  0  0  0  0  0  0  0
   28.6792   -7.5292    0.0000 O   0  0  0  0  0  0  0  0  0  0  0  0
   20.0667   -7.5875    0.0000 O   0  0  0  0  0  0  0  0  0  0  0  0
   -7.9167   -9.8625    0.0000 O   0  0  0  0  0  0  0  0  0  0  0  0
    4.9958   -9.7708    0.0000 O   0  0  0  0  0  0  0  0  0  0  0  0
   26.5167   -9.6125    0.0000 O   0  0  0  0  0  0  0  0  0  0  0  0
    9.3042   -9.7375    0.0000 O   0  0  0  0  0  0  0  0  0  0  0  0
   22.2125   -9.6417    0.0000 O   0  0  0  0  0  0  0  0  0  0  0  0
   32.9792   -7.4958    0.0000 O   0  0  0  0  0  0  0  0  0  0  0  0
   37.2833   -7.4583    0.0000 O   0  0  0  0  0  0  0  0  0  0  0  0
  -10.0542   -7.8042    0.0000 O   0  0  0  0  0  0  0  0  0  0  0  0
   35.1250   -9.5500    0.0000 O   0  0  0  0  0  0  0  0  0  0  0  0
   24.3708   -7.5542    0.0000 O   0  0  0  0  0  0  0  0  0  0  0  0
   39.4250   -9.5167    0.0000 O   0  0  0  0  0  0  0  0  0  0  0  0
   -3.6083   -9.8292    0.0000 O   0  0  0  0  0  0  0  0  0  0  0  0
   13.6042   -9.7042    0.0000 O   0  0  0  0  0  0  0  0  0  0  0  0
   17.9083   -9.6750    0.0000 O   0  0  0  0  0  0  0  0  0  0  0  0
   15.7667   -7.6167    0.0000 O   0  0  0  0  0  0  0  0  0  0  0  0
   30.8208   -9.5792    0.0000 O   0  0  0  0  0  0  0  0  0  0  0  0
    2.8542   -7.7125    0.0000 O   0  0  0  0  0  0  0  0  0  0  0  0
   36.5583   -9.5375    0.0000 C   0  0  0  0  0  0  0  0  0  0  0  0
  -10.7750   -9.8833    0.0000 C   0  0  0  0  0  0  0  0  0  0  0  0
   -1.4500   -7.7417    0.0000 O   0  0  0  0  0  0  0  0  0  0  0  0
   41.5833   -7.4333    0.0000 O   0  0  0  0  0  0  0  0  0  0  0  0
   21.5042   -7.5750    0.0000 C   0  0  0  0  0  0  0  0  0  0  0  0
   34.4125   -7.4875    0.0000 C   0  0  0  0  0  0  0  0  0  0  0  0
   -6.4750   -9.8542    0.0000 C   0  0  2  0  0  0  0  0  0  0  0  0
   32.9792  -10.8083    0.0000 O   0  0  0  0  0  0  0  0  0  0  0  0
   39.4250   -6.2042    0.0000 O   0  0  0  0  0  0  0  0  0  0  0  0
   24.3708  -10.8667    0.0000 O   0  0  0  0  0  0  0  0  0  0  0  0
    0.6917   -9.8000    0.0000 O   0  0  0  0  0  0  0  0  0  0  0  0
  -12.2125   -9.8958    0.0000 O   0  0  0  0  0  0  0  0  0  0  0  0
   18.6167   -5.9542    0.0000 O   0  0  0  0  0  0  0  0  0  0  0  0
   42.3167  -11.1625    0.0000 O   0  0  0  0  0  0  0  0  0  0  0  0
   17.2000   -7.6083    0.0000 C   0  0  0  0  0  0  0  0  0  0  0  0
   40.8625   -9.5083    0.0000 C   0  0  0  0  0  0  0  0  0  0  0  0
   -0.0125   -8.5750    0.0000 C   0  0  0  0  0  0  0  0  0  0  0  0
   27.9500   -9.6000    0.0000 C   0  0  0  0  0  0  0  0  0  0  0  0
    6.4292   -9.7583    0.0000 C   0  0  0  0  0  0  0  0  0  0  0  0
   10.7375   -9.7292    0.0000 C   0  0  2  0  0  0  0  0  0  0  0  0
   33.7083   -9.5708    0.0000 N   0  0  0  0  0  0  0  0  0  0  0  0
   17.9083   -7.2000    0.0000 C   0  0  0  0  0  0  0  0  0  0  0  0
   41.5833   -9.9250    0.0000 C   0  0  0  0  0  0  0  0  0  0  0  0
   42.3000   -8.6792    0.0000 O   0  0  0  0  0  0  0  0  0  0  0  0
   40.1375   -7.4542    0.0000 O   0  0  0  0  0  0  0  0  0  0  0  0
   25.0958   -9.6333    0.0000 O   0  0  0  0  0  0  0  0  0  0  0  0
   40.8792  -11.1500    0.0000 O   0  0  0  0  0  0  0  0  0  0  0  0
   17.1833   -5.9417    0.0000 O   0  0  0  0  0  0  0  0  0  0  0  0
  -10.0583  -10.3000    0.0000 C   0  0  0  0  0  0  0  0  0  0  0  0
   37.2833   -9.9583    0.0000 C   0  0  0  0  0  0  0  0  0  0  0  0
   19.3417   -9.6625    0.0000 C   0  0  0  0  0  0  0  0  0  0  0  0
   -2.1750   -9.8208    0.0000 C   0  0  0  0  0  0  0  0  0  0  0  0
  -13.6542   -9.0667    0.0000 N   0  0  0  0  0  0  0  0  0  0  0  0
   16.4917  -12.1667    0.0000 N   0  0  0  0  0  0  0  0  0  0  0  0
    3.5792  -12.2625    0.0000 N   0  0  0  0  0  0  0  0  0  0  0  0
   10.0125   -5.1750    0.0000 N   0  0  0  0  0  0  0  0  0  0  0  0
    5.7042   -5.2083    0.0000 N   0  0  0  0  0  0  0  0  0  0  0  0
   31.5292   -5.0208    0.0000 N   0  0  0  0  0  0  0  0  0  0  0  0
   27.2250   -5.0500    0.0000 N   0  0  0  0  0  0  0  0  0  0  0  0
   -5.7500  -10.2708    0.0000 O   0  0  0  0  0  0  0  0  0  0  0  0
  -12.9292   -8.6500    0.0000 C   0  0  0  0  0  0  0  0  0  0  0  0
   20.0667  -10.0833    0.0000 O   0  0  0  0  0  0  0  0  0  0  0  0
   -1.4500  -10.2417    0.0000 O   0  0  0  0  0  0  0  0  0  0  0  0
   22.2125   -7.1667    0.0000 C   0  0  0  0  0  0  0  0  0  0  0  0
   35.1250   -7.0750    0.0000 C   0  0  0  0  0  0  0  0  0  0  0  0
   30.1125   -7.5125    0.0000 C   0  0  0  0  0  0  0  0  0  0  0  0
    4.2875   -7.7000    0.0000 C   0  0  0  0  0  0  0  0  0  0  0  0
   25.8083   -7.5500    0.0000 C   0  0  0  0  0  0  0  0  0  0  0  0
    8.5958   -7.6708    0.0000 C   0  0  0  0  0  0  0  0  0  0  0  0
   15.0417   -9.6958    0.0000 C   0  0  0  0  0  0  0  0  0  0  0  0
    2.1292   -9.7875    0.0000 C   0  0  0  0  0  0  0  0  0  0  0  0
   12.8958   -7.6375    0.0000 C   0  0  0  0  0  0  0  0  0  0  0  0
   -4.3167   -7.7625    0.0000 C   0  0  0  0  0  0  0  0  0  0  0  0
   27.2250   -5.8875    0.0000 C   0  0  0  0  0  0  0  0  0  0  0  0
   16.4917  -11.3500    0.0000 C   0  0  0  0  0  0  0  0  0  0  0  0
   31.5292   -5.8583    0.0000 C   0  0  0  0  0  0  0  0  0  0  0  0
    3.5792  -11.4458    0.0000 C   0  0  0  0  0  0  0  0  0  0  0  0
   10.0125   -6.0125    0.0000 C   0  0  0  0  0  0  0  0  0  0  0  0
    5.7042   -6.0458    0.0000 C   0  0  0  0  0  0  0  0  0  0  0  0
   10.0292  -10.1375    0.0000 C   0  0  0  0  0  0  0  0  0  0  0  0
   -7.1875  -10.2583    0.0000 C   0  0  0  0  0  0  0  0  0  0  0  0
    5.7208  -10.1667    0.0000 C   0  0  0  0  0  0  0  0  0  0  0  0
   28.6792  -10.0208    0.0000 C   0  0  0  0  0  0  0  0  0  0  0  0
   27.2417  -10.0125    0.0000 C   0  0  0  0  0  0  0  0  0  0  0  0
    7.1625  -10.1792    0.0000 C   0  0  0  0  0  0  0  0  0  0  0  0
   11.4625  -10.1458    0.0000 C   0  0  0  0  0  0  0  0  0  0  0  0
  -10.0458  -11.1167    0.0000 C   0  0  0  0  0  0  0  0  0  0  0  0
   38.0000   -9.5292    0.0000 C   0  0  0  0  0  0  0  0  0  0  0  0
   -9.3375   -9.8708    0.0000 C   0  0  0  0  0  0  0  0  0  0  0  0
   37.2958  -10.7708    0.0000 C   0  0  0  0  0  0  0  0  0  0  0  0
   26.5167   -7.1333    0.0000 C   0  0  0  0  0  0  0  0  0  0  0  0
    4.9958   -7.2917    0.0000 C   0  0  0  0  0  0  0  0  0  0  0  0
    9.3042   -7.2625    0.0000 C   0  0  0  0  0  0  0  0  0  0  0  0
    2.8542  -10.2083    0.0000 C   0  0  0  0  0  0  0  0  0  0  0  0
   15.7667  -10.1125    0.0000 C   0  0  0  0  0  0  0  0  0  0  0  0
   30.8208   -7.1042    0.0000 C   0  0  0  0  0  0  0  0  0  0  0  0
    4.9958   -6.4542    0.0000 C   0  0  0  0  0  0  0  0  0  0  0  0
    2.8542  -11.0250    0.0000 C   0  0  0  0  0  0  0  0  0  0  0  0
   15.7667  -10.9333    0.0000 C   0  0  0  0  0  0  0  0  0  0  0  0
    9.3042   -6.4250    0.0000 C   0  0  0  0  0  0  0  0  0  0  0  0
   26.5167   -6.2958    0.0000 C   0  0  0  0  0  0  0  0  0  0  0  0
   30.8208   -6.2667    0.0000 C   0  0  0  0  0  0  0  0  0  0  0  0
   35.1250   -6.2375    0.0000 C   0  0  0  0  0  0  0  0  0  0  0  0
   35.8292   -7.4875    0.0000 C   0  0  0  0  0  0  0  0  0  0  0  0
   22.9250   -7.5750    0.0000 C   0  0  0  0  0  0  0  0  0  0  0  0
   22.2125   -6.3292    0.0000 C   0  0  0  0  0  0  0  0  0  0  0  0
   10.0292  -10.9750    0.0000 C   0  0  0  0  0  0  0  0  0  0  0  0
   38.7208   -9.9375    0.0000 C   0  0  0  0  0  0  0  0  0  0  0  0
   38.0167  -11.1792    0.0000 C   0  0  0  0  0  0  0  0  0  0  0  0
   -8.6250  -10.2833    0.0000 C   0  0  0  0  0  0  0  0  0  0  0  0
   -9.3208  -11.5250    0.0000 C   0  0  0  0  0  0  0  0  0  0  0  0
   38.7292  -10.7625    0.0000 C   0  0  0  0  0  0  0  0  0  0  0  0
   -8.6125  -11.1083    0.0000 C   0  0  0  0  0  0  0  0  0  0  0  0
  1  2  1  0  0  0  0
  1  3  1  6  0  0  0
 40  4  1  0  0  0  0
 42  5  1  0  0  0  0
 41  6  1  0  0  0  0
  7 14  1  0  0  0  0
  8 12  1  0  0  0  0
  9 13  1  0  0  0  0
 10  3  1  0  0  0  0
 30 11  1  0  0  0  0
 80 12  1  0  0  0  0
 77 13  1  0  0  0  0
 81 14  1  0  0  0  0
 46 15  1  0  0  0  0
 48 16  1  0  0  0  0
 47 17  1  0  0  0  0
 60 18  1  0  0  0  0
 59 19  1  0  0  0  0
 61 20  1  0  0  0  0
 21 35  1  0  0  0  0
 68 22  1  0  0  0  0
 79 23  1  0  0  0  0
 82 24  1  0  0  0  0
 78 25  1  0  0  0  0
 83 26  1  0  0  0  0
 86 27  1  0  0  0  0
 28 22  1  0  0  0  0
 29 23  1  0  0  0  0
 30 28  1  6  0  0  0
 31 19  1  0  0  0  0
 32 20  1  0  0  0  0
 33 24  1  0  0  0  0
 34 11  1  0  0  0  0
 55 35  1  1  0  0  0
 36  2  1  0  0  0  0
 37 29  1  6  0  0  0
 38 18  1  0  0  0  0
 39 15  1  0  0  0  0
 40  7  1  6  0  0  0
 41  8  1  6  0  0  0
 42  9  1  6  0  0  0
 43  5  1  0  0  0  0
 44  6  1  0  0  0  0
 45  4  1  0  0  0  0
 46 33  1  6  0  0  0
 47 31  1  1  0  0  0
 48 32  1  6  0  0  0
 49 26  1  0  0  0  0
 50 17  1  0  0  0  0
 51 16  1  0  0  0  0
 52 25  1  0  0  0  0
 53 27  1  0  0  0  0
 37 54  1  0  0  0  0
 55 10  1  0  0  0  0
 46 56  1  0  0  0  0
 47 57  1  0  0  0  0
 48 58  1  0  0  0  0
 59 38  1  6  0  0  0
 60 39  1  1  0  0  0
 61 34  1  1  0  0  0
 62 89  1  0  0  0  0
 63 21  1  0  0  0  0
 63 64  1  6  0  0  0
 74 65  1  0  0  0  0
 66 69  1  0  0  0  0
 67 75  1  0  0  0  0
 68 49  1  1  0  0  0
 55 69  1  0  0  0  0
 70 56  1  0  0  0  0
 71 57  1  0  0  0  0
 72 66  1  0  0  0  0
 73 58  1  0  0  0  0
 74 50  1  6  0  0  0
 75128  1  0  0  0  0
 76 54  1  0  0  0  0
 77 45  1  1  0  0  0
 78 43  1  0  0  0  0
 79 36  1  0  0  0  0
 80 51  1  1  0  0  0
 81 53  1  1  0  0  0
 82 44  1  1  0  0  0
 83 52  1  6  0  0  0
 84 72  1  0  0  0  0
 85 64  1  0  0  0  0
 86 67  1  6  0  0  0
 87133  1  0  0  0  0
 88134  1  0  0  0  0
 89 66  2  0  0  0  0
 90  2  2  0  0  0  0
 91  5  2  0  0  0  0
 92  4  2  0  0  0  0
 93  6  2  0  0  0  0
 94 11  2  0  0  0  0
 95 10  2  0  0  0  0
 96 14  2  0  0  0  0
 97 12  2  0  0  0  0
 98 13  2  0  0  0  0
 99 20  2  0  0  0  0
100 15  2  0  0  0  0
101 19  2  0  0  0  0
102 21  2  0  0  0  0
103 18  2  0  0  0  0
104 16  2  0  0  0  0
105 17  2  0  0  0  0
106 23  2  0  0  0  0
107 25  2  0  0  0  0
108 22  2  0  0  0  0
109 26  2  0  0  0  0
110 24  2  0  0  0  0
111 27  2  0  0  0  0
 59112  1  0  0  0  0
 63113  1  0  0  0  0
114 54  2  0  0  0  0
115 65  2  0  0  0  0
 61116  1  0  0  0  0
 60117  1  0  0  0  0
  1118  1  0  0  0  0
119 70  2  0  0  0  0
120 71  2  0  0  0  0
121 73  2  0  0  0  0
122 75  2  0  0  0  0
123 85  2  0  0  0  0
124 87  2  0  0  0  0
125 88  2  0  0  0  0
 68126  1  0  0  0  0
 74127  1  0  0  0  0
128 76  1  0  0  0  0
 41129  1  0  0  0  0
 40130  1  0  0  0  0
 42131  1  0  0  0  0
132 70  1  0  0  0  0
133126  1  0  0  0  0
134127  1  0  0  0  0
135 65  1  0  0  0  0
136 71  1  0  0  0  0
137 73  1  0  0  0  0
138 88  1  0  0  0  0
139 87  1  0  0  0  0
140113  1  0  0  0  0
141112  1  0  0  0  0
 30142  1  0  0  0  0
 37143  1  0  0  0  0
144152  1  0  0  0  0
145166  1  0  0  0  0
146168  1  0  0  0  0
147169  1  0  0  0  0
148170  1  0  0  0  0
149167  1  0  0  0  0
150165  1  0  0  0  0
118151  1  6  0  0  0
152 85  1  0  0  0  0
153142  1  0  0  0  0
154143  1  0  0  0  0
155116  1  0  0  0  0
156117  1  0  0  0  0
 82157  1  0  0  0  0
 81158  1  0  0  0  0
 80159  1  0  0  0  0
 77160  1  0  0  0  0
 83161  1  0  0  0  0
 86162  1  0  0  0  0
 78163  1  1  0  0  0
 79164  1  1  0  0  0
165192  1  0  0  0  0
166190  1  0  0  0  0
167193  1  0  0  0  0
168189  1  0  0  0  0
169191  1  0  0  0  0
170188  1  0  0  0  0
131171  1  0  0  0  0
118172  1  0  0  0  0
173130  1  0  0  0  0
174129  1  0  0  0  0
175129  1  0  0  0  0
176130  1  0  0  0  0
131177  1  1  0  0  0
178140  2  0  0  0  0
179141  2  0  0  0  0
180140  1  0  0  0  0
181141  1  0  0  0  0
182159  1  0  0  0  0
183158  1  0  0  0  0
184160  1  0  0  0  0
185162  1  0  0  0  0
186161  1  0  0  0  0
187157  1  0  0  0  0
188183  1  0  0  0  0
189185  1  0  0  0  0
190186  1  0  0  0  0
191184  1  0  0  0  0
192182  1  0  0  0  0
193187  1  0  0  0  0
194156  1  0  0  0  0
195156  1  0  0  0  0
196155  1  0  0  0  0
197155  1  0  0  0  0
198171  1  0  0  0  0
199179  1  0  0  0  0
200181  2  0  0  0  0
201180  2  0  0  0  0
202178  1  0  0  0  0
203199  2  0  0  0  0
204201  1  0  0  0  0
 62 84  2  0  0  0  0
202204  2  0  0  0  0
200203  1  0  0  0  0
M  END
> <From>
www.bindingDB.org

> <BindingDB Reactant_set_id>
51016949

> <Ligand InChI>
InChI=1S/C130H213N35O39/c1-14-71(10)105(164-116(189)83(42-26-32-52-136)151-127(200)104(70(8)9)162-114(187)81(40-24-30-50-134)147-110(183)78(37-21-27-47-131)144-98(171)63-140-109(182)94(64-166)160-108(181)73(12)143-129(202)106(74(13)168)165-124(197)90(57-77-62-139-66-141-77)156-119(192)88(145-97(170)61-137)55-75-33-17-15-18-34-75)128(201)142-72(11)107(180)146-79(38-22-28-48-132)111(184)149-84(43-45-99(172)173)113(186)161-95(65-167)125(198)154-87(54-68(4)5)118(191)158-92(59-101(176)177)122(195)148-82(41-25-31-51-135)115(188)163-103(69(6)7)126(199)150-80(39-23-29-49-133)112(185)157-91(58-96(138)169)121(194)153-86(53-67(2)3)117(190)155-89(56-76-35-19-16-20-36-76)120(193)159-93(60-102(178)179)123(196)152-85(130(203)204)44-46-100(174)175/h15-20,33-36,62,66-74,78-95,103-106,166-168H,14,21-32,37-61,63-65,131-137H2,1-13H3,(H2,138,169)(H,139,141)(H,140,182)(H,142,201)(H,143,202)(H,144,171)(H,145,170)(H,146,180)(H,147,183)(H,148,195)(H,149,184)(H,150,199)(H,151,200)(H,152,196)(H,153,194)(H,154,198)(H,155,190)(H,156,192)(H,157,185)(H,158,191)(H,159,193)(H,160,181)(H,161,186)(H,162,187)(H,163,188)(H,164,189)(H,165,197)(H,172,173)(H,174,175)(H,176,177)(H,178,179)(H,203,204)/t71-,72-,73-,74+,78-,79-,80-,81-,82-,83-,84-,85-,86-,87-,88-,89-,90-,91-,92-,93-,94-,95-,103-,104-,105-,106-/m0/s1

> <Ligand InChI Key>
DPKCGEUTNOZFLX-UHHARVACSA-N

> <BindingDB MonomerID>
50416562

> <BindingDB Ligand Name>
CHEMBL1215811

> <Target Name>
DNA repair protein RAD51 homolog 1

> <Target Source Organism According to Curator or DataSource>
Homo sapiens

> <Ki (nM)>


> <IC50 (nM)>
 3500

> <Kd (nM)>


> <EC50 (nM)>


> <kon (M-1-s-1)>


> <koff (s-1)>


> <pH>


> <Temp C>


> <Curation/DataSource>
ChEMBL

> <Article DOI>
10.1021/jm1002974

> <BindingDB Entry DOI>
10.7270/Q2NG4RV5

> <PMID>
20684611

> <PubChem AID>


> <Patent Number>


> <Authors>
Nomme, J; Renodon-Corniere, A; Asanomi, Y; Sakaguchi, K; Stasiak, AZ; Stasiak, A; Norden, B; Tran, V; Takahashi, M

> <Date of publication>
8/5/2010

> <Date in BindingDB>
5/22/2013

> <Institution>
Centre National de la Recherche Scientifique & Universite de Nantes

> <Link to Ligand in BindingDB>
http://www.bindingdb.org/bind/chemsearch/marvin/MolStructure.jsp?monomerid=50416562

> <Link to Ligand-Target Pair in BindingDB>
http://www.bindingdb.org/jsp/dbsearch/PrimarySearch_ki.jsp?energyterm=kJ/mole&tag=pol&polymerid=4676&target=DNA+repair+protein+RAD51+homolog+1&column=ki&startPg=0&Increment=50&submit=Search

> <Link to Ligand-Target Pair in BindingDB>
http://www.bindingdb.org/jsp/dbsearch/PrimarySearch_ki.jsp?energyterm=kJ/mole&tag=r21&monomerid=50416562&enzyme=DNA+repair+protein+RAD51+homolog+1&column=ki&startPg=0&Increment=50&submit=Search

> <Ligand HET ID in PDB>


> <PDB ID(s) for Ligand-Target Complex>


> <PubChem CID of Ligand>
49864240

> <PubChem SID of Ligand>
163365586

> <ChEBI ID of Ligand>


> <ChEMBL ID of Ligand>
CHEMBL1215811

> <DrugBank ID of Ligand>


> <IUPHAR_GRAC ID of Ligand>


> <KEGG ID of Ligand>


> <ZINC ID of Ligand>


> <Number of Protein Chains in Target (bigger than 1 implies a multichain complex)>
1

> <BindingDB Target Chain Sequence>
MAMQMQLEANADTSVEEESFGPQPISRLEQCGINANDVKKLEEAGFHTVEAVAYAPKKELINIKGISEAKADKILAEAAKLVPMGFTTATEFHQRRSEIIQITTGSKELDKLLQGGIETGSITEMFGEFRTGKTQICHTLAVTCQLPIDRGGGEGKAMYIDTEGTFRPERLLAVAERYGLSGSDVLDNVAYARAFNTDHQTQLLYQASAMMVESRYALLIVDSATALYRTDYSGRGELSARQMHLARFLRMLLRLADEFGVAVVITNQVVAQVDGAAMFAADPKKPIGGNIIAHASTTRLYLRKGRGETRICKIYDSPCLPEAEAMFAINADGVGDAKD

> <PDB ID(s) of Target Chain>
1N0W,5JZC,5NP7,5NWL,8BQ2,8BR2,8BSC

> <UniProt (SwissProt) Recommended Name of Target Chain>
DNA repair protein RAD51 homolog 1

> <UniProt (SwissProt) Entry Name of Target Chain>
RAD51_HUMAN

> <UniProt (SwissProt) Primary ID of Target Chain>
Q06609

> <UniProt (SwissProt) Secondary ID(s) of Target Chain>
B0FXP0 B2R8T6 Q6FHX9 Q6ZNA8 Q9BV60

> <UniProt (SwissProt) Alternative ID(s) of Target Chain>


> <UniProt (TrEMBL) Submitted Name of Target Chain>


> <UniProt (TrEMBL) Entry Name of Target Chain>


> <UniProt (TrEMBL) Primary ID of Target Chain>


> <UniProt (TrEMBL) Secondary ID(s) of Target Chain>


> <UniProt (TrEMBL) Alternative ID(s) of Target Chain>


$$$$

  Mrv0541 11241415252D          

189190  0  0  0  0            999 V2000
   -2.8852  -16.6877    0.0000 C   0  0  1  0  0  0  0  0  0  0  0  0
   -2.1660  -16.2719    0.0000 C   0  0  0  0  0  0  0  0  0  0  0  0
   -3.6003  -16.2803    0.0000 N   0  0  0  0  0  0  0  0  0  0  0  0
   10.7468  -16.1805    0.0000 C   0  0  0  0  0  0  0  0  0  0  0  0
   15.0456  -16.1514    0.0000 C   0  0  0  0  0  0  0  0  0  0  0  0
   32.2612  -16.0267    0.0000 C   0  0  0  0  0  0  0  0  0  0  0  0
    9.3125  -16.1930    0.0000 N   0  0  0  0  0  0  0  0  0  0  0  0
   30.8269  -16.0349    0.0000 N   0  0  0  0  0  0  0  0  0  0  0  0
   13.6113  -16.1597    0.0000 N   0  0  0  0  0  0  0  0  0  0  0  0
   23.6554  -16.0890    0.0000 C   0  0  0  0  0  0  0  0  0  0  0  0
   -4.3195  -16.6919    0.0000 C   0  0  0  0  0  0  0  0  0  0  0  0
   30.0952  -16.4549    0.0000 C   0  0  0  0  0  0  0  0  0  0  0  0
   12.8879  -16.5796    0.0000 C   0  0  0  0  0  0  0  0  0  0  0  0
    8.5850  -16.6087    0.0000 C   0  0  0  0  0  0  0  0  0  0  0  0
   36.5600  -15.9934    0.0000 C   0  0  0  0  0  0  0  0  0  0  0  0
   27.9542  -16.0558    0.0000 C   0  0  0  0  0  0  0  0  0  0  0  0
   43.0039  -16.3592    0.0000 C   0  0  0  0  0  0  0  0  0  0  0  0
   38.7052  -16.3926    0.0000 C   0  0  0  0  0  0  0  0  0  0  0  0
   40.8628  -15.9643    0.0000 C   0  0  0  0  0  0  0  0  0  0  0  0
   25.7965  -16.4839    0.0000 C   0  0  0  0  0  0  0  0  0  0  0  0
   21.4936  -16.5173    0.0000 C   0  0  0  0  0  0  0  0  0  0  0  0
   -0.0208  -16.6710    0.0000 C   0  0  0  0  0  0  0  0  0  0  0  0
   34.4023  -16.4216    0.0000 C   0  0  0  0  0  0  0  0  0  0  0  0
   17.1908  -16.5463    0.0000 C   0  0  0  0  0  0  0  0  0  0  0  0
   19.3525  -16.1182    0.0000 C   0  0  0  0  0  0  0  0  0  0  0  0
    6.4398  -16.2138    0.0000 C   0  0  0  0  0  0  0  0  0  0  0  0
   22.2170  -16.0973    0.0000 N   0  0  0  0  0  0  0  0  0  0  0  0
    0.7067  -16.2554    0.0000 N   0  0  0  0  0  0  0  0  0  0  0  0
   22.9237  -16.5048    0.0000 C   0  0  1  0  0  0  0  0  0  0  0  0
   41.5738  -16.3717    0.0000 N   0  0  0  0  0  0  0  0  0  0  0  0
   26.5199  -16.0683    0.0000 N   0  0  0  0  0  0  0  0  0  0  0  0
   35.1257  -16.0059    0.0000 N   0  0  0  0  0  0  0  0  0  0  0  0
   24.3622  -16.4964    0.0000 N   0  0  0  0  0  0  0  0  0  0  0  0
   -1.4550  -16.6835    0.0000 N   0  0  0  0  0  0  0  0  0  0  0  0
    1.4135  -16.6627    0.0000 C   0  0  2  0  0  0  0  0  0  0  0  0
   39.4285  -15.9726    0.0000 N   0  0  0  0  0  0  0  0  0  0  0  0
   37.2667  -16.4008    0.0000 N   0  0  0  0  0  0  0  0  0  0  0  0
   10.0151  -16.6004    0.0000 C   0  0  1  0  0  0  0  0  0  0  0  0
   31.5337  -16.4424    0.0000 C   0  0  1  0  0  0  0  0  0  0  0  0
   14.3222  -16.5672    0.0000 C   0  0  1  0  0  0  0  0  0  0  0  0
   15.7565  -16.5588    0.0000 N   0  0  0  0  0  0  0  0  0  0  0  0
   32.9680  -16.4341    0.0000 N   0  0  0  0  0  0  0  0  0  0  0  0
   11.4536  -16.5879    0.0000 N   0  0  0  0  0  0  0  0  0  0  0  0
   35.8366  -16.4133    0.0000 C   0  0  1  0  0  0  0  0  0  0  0  0
   42.2971  -15.9518    0.0000 C   0  0  1  0  0  0  0  0  0  0  0  0
   27.2308  -16.4757    0.0000 C   0  0  1  0  0  0  0  0  0  0  0  0
   20.0594  -16.5256    0.0000 N   0  0  0  0  0  0  0  0  0  0  0  0
   43.7314  -15.9436    0.0000 N   0  0  0  0  0  0  0  0  0  0  0  0
   28.6651  -16.4632    0.0000 N   0  0  0  0  0  0  0  0  0  0  0  0
   17.9182  -16.1306    0.0000 N   0  0  0  0  0  0  0  0  0  0  0  0
    7.1507  -16.6211    0.0000 N   0  0  0  0  0  0  0  0  0  0  0  0
    2.1410  -16.2429    0.0000 C   0  0  0  0  0  0  0  0  0  0  0  0
   35.8366  -17.2323    0.0000 C   0  0  0  0  0  0  0  0  0  0  0  0
   42.2971  -15.1120    0.0000 C   0  0  0  0  0  0  0  0  0  0  0  0
   27.2308  -17.2946    0.0000 C   0  0  0  0  0  0  0  0  0  0  0  0
   40.1395  -16.3801    0.0000 C   0  0  1  0  0  0  0  0  0  0  0  0
   37.9983  -15.9851    0.0000 C   0  0  1  0  0  0  0  0  0  0  0  0
   25.0897  -16.0766    0.0000 C   0  0  1  0  0  0  0  0  0  0  0  0
   -3.0764  -14.5841    0.0000 N   0  0  0  0  0  0  0  0  0  0  0  0
   45.1698  -15.9311    0.0000 C   0  0  0  0  0  0  0  0  0  0  0  0
    5.0096  -16.2220    0.0000 N   0  0  0  0  0  0  0  0  0  0  0  0
   -4.3195  -15.0456    0.0000 C   0  0  0  0  0  0  0  0  0  0  0  0
   20.7827  -16.1098    0.0000 C   0  0  1  0  0  0  0  0  0  0  0  0
   36.5600  -17.6480    0.0000 C   0  0  0  0  0  0  0  0  0  0  0  0
   43.0039  -14.7046    0.0000 C   0  0  0  0  0  0  0  0  0  0  0  0
   -4.3570  -14.2099    0.0000 N   0  0  0  0  0  0  0  0  0  0  0  0
   27.9542  -17.7146    0.0000 C   0  0  0  0  0  0  0  0  0  0  0  0
   44.4423  -16.3509    0.0000 C   0  0  2  0  0  0  0  0  0  0  0  0
   -5.0345  -15.4571    0.0000 C   0  0  0  0  0  0  0  0  0  0  0  0
    4.2821  -16.6420    0.0000 C   0  0  0  0  0  0  0  0  0  0  0  0
    2.8478  -16.6503    0.0000 N   0  0  0  0  0  0  0  0  0  0  0  0
   12.1811  -16.1721    0.0000 C   0  0  1  0  0  0  0  0  0  0  0  0
   -5.0345  -16.2761    0.0000 C   0  0  2  0  0  0  0  0  0  0  0  0
   16.4839  -16.1389    0.0000 C   0  0  1  0  0  0  0  0  0  0  0  0
   -0.7317  -16.2594    0.0000 C   0  0  1  0  0  0  0  0  0  0  0  0
   29.3885  -16.0474    0.0000 C   0  0  1  0  0  0  0  0  0  0  0  0
    7.8741  -16.2013    0.0000 C   0  0  1  0  0  0  0  0  0  0  0  0
   33.6914  -16.0142    0.0000 C   0  0  1  0  0  0  0  0  0  0  0  0
   18.6251  -16.5380    0.0000 C   0  0  1  0  0  0  0  0  0  0  0  0
   -3.5795  -13.9272    0.0000 C   0  0  0  0  0  0  0  0  0  0  0  0
    5.7164  -16.6295    0.0000 C   0  0  1  0  0  0  0  0  0  0  0  0
   21.4936  -14.0187    0.0000 C   0  0  0  0  0  0  0  0  0  0  0  0
   45.1698  -18.4006    0.0000 C   0  0  0  0  0  0  0  0  0  0  0  0
   -3.5379  -15.2617    0.0000 C   0  0  0  0  0  0  0  0  0  0  0  0
   -2.1660  -15.4363    0.0000 O   0  0  0  0  0  0  0  0  0  0  0  0
   15.0456  -15.3075    0.0000 O   0  0  0  0  0  0  0  0  0  0  0  0
   10.7468  -15.3407    0.0000 O   0  0  0  0  0  0  0  0  0  0  0  0
   32.2612  -15.1868    0.0000 O   0  0  0  0  0  0  0  0  0  0  0  0
   23.6554  -15.2492    0.0000 O   0  0  0  0  0  0  0  0  0  0  0  0
   12.8879  -17.3986    0.0000 O   0  0  0  0  0  0  0  0  0  0  0  0
    8.5850  -17.4318    0.0000 O   0  0  0  0  0  0  0  0  0  0  0  0
   -4.3195  -17.5233    0.0000 O   0  0  0  0  0  0  0  0  0  0  0  0
   30.0952  -17.2739    0.0000 O   0  0  0  0  0  0  0  0  0  0  0  0
   40.8628  -15.1204    0.0000 O   0  0  0  0  0  0  0  0  0  0  0  0
   38.7052  -17.2115    0.0000 O   0  0  0  0  0  0  0  0  0  0  0  0
   36.5600  -15.1536    0.0000 O   0  0  0  0  0  0  0  0  0  0  0  0
   25.7965  -17.3030    0.0000 O   0  0  0  0  0  0  0  0  0  0  0  0
   43.0039  -17.1783    0.0000 O   0  0  0  0  0  0  0  0  0  0  0  0
   27.9542  -15.2160    0.0000 O   0  0  0  0  0  0  0  0  0  0  0  0
   -0.0208  -17.4859    0.0000 O   0  0  0  0  0  0  0  0  0  0  0  0
   17.1908  -17.3654    0.0000 O   0  0  0  0  0  0  0  0  0  0  0  0
   21.4936  -17.3362    0.0000 O   0  0  0  0  0  0  0  0  0  0  0  0
   19.3525  -15.2783    0.0000 O   0  0  0  0  0  0  0  0  0  0  0  0
   34.4023  -17.2407    0.0000 O   0  0  0  0  0  0  0  0  0  0  0  0
    6.4398  -15.3739    0.0000 O   0  0  0  0  0  0  0  0  0  0  0  0
   40.1395  -17.1990    0.0000 C   0  0  0  0  0  0  0  0  0  0  0  0
    2.1410  -15.4031    0.0000 O   0  0  0  0  0  0  0  0  0  0  0  0
   45.1698  -15.0913    0.0000 O   0  0  0  0  0  0  0  0  0  0  0  0
   25.0897  -15.2367    0.0000 C   0  0  0  0  0  0  0  0  0  0  0  0
   37.9983  -15.1453    0.0000 C   0  0  0  0  0  0  0  0  0  0  0  0
   -2.8852  -17.5067    0.0000 C   0  0  2  0  0  0  0  0  0  0  0  0
   36.5600  -18.4712    0.0000 O   0  0  0  0  0  0  0  0  0  0  0  0
   43.0039  -13.8648    0.0000 O   0  0  0  0  0  0  0  0  0  0  0  0
   27.9542  -18.5253    0.0000 O   0  0  0  0  0  0  0  0  0  0  0  0
    4.2821  -17.4610    0.0000 O   0  0  0  0  0  0  0  0  0  0  0  0
   22.2004  -13.6113    0.0000 O   0  0  0  0  0  0  0  0  0  0  0  0
   45.8932  -18.8246    0.0000 O   0  0  0  0  0  0  0  0  0  0  0  0
   20.7827  -15.2659    0.0000 C   0  0  0  0  0  0  0  0  0  0  0  0
   44.4423  -17.1699    0.0000 C   0  0  0  0  0  0  0  0  0  0  0  0
    3.5753  -16.2345    0.0000 C   0  0  0  0  0  0  0  0  0  0  0  0
   31.5337  -17.2614    0.0000 C   0  0  0  0  0  0  0  0  0  0  0  0
   10.0151  -17.4194    0.0000 C   0  0  0  0  0  0  0  0  0  0  0  0
   14.3222  -17.3903    0.0000 C   0  0  2  0  0  0  0  0  0  0  0  0
   37.2874  -17.2323    0.0000 N   0  0  0  0  0  0  0  0  0  0  0  0
   21.4936  -14.8626    0.0000 C   0  0  0  0  0  0  0  0  0  0  0  0
   45.1698  -17.5857    0.0000 C   0  0  0  0  0  0  0  0  0  0  0  0
   -5.7579  -16.6960    0.0000 N   0  0  0  0  0  0  0  0  0  0  0  0
   45.8766  -16.3385    0.0000 O   0  0  0  0  0  0  0  0  0  0  0  0
   43.7148  -15.1120    0.0000 O   0  0  0  0  0  0  0  0  0  0  0  0
   28.6859  -17.2946    0.0000 O   0  0  0  0  0  0  0  0  0  0  0  0
   44.4589  -18.8121    0.0000 O   0  0  0  0  0  0  0  0  0  0  0  0
   20.7661  -13.6029    0.0000 O   0  0  0  0  0  0  0  0  0  0  0  0
   40.8628  -17.6189    0.0000 C   0  0  0  0  0  0  0  0  0  0  0  0
   22.9237  -17.3238    0.0000 C   0  0  0  0  0  0  0  0  0  0  0  0
    1.4135  -17.4817    0.0000 C   0  0  0  0  0  0  0  0  0  0  0  0
   20.0801  -19.8265    0.0000 N   0  0  0  0  0  0  0  0  0  0  0  0
    7.1715  -19.9222    0.0000 N   0  0  0  0  0  0  0  0  0  0  0  0
   13.5988  -12.8338    0.0000 N   0  0  0  0  0  0  0  0  0  0  0  0
    9.2917  -12.8670    0.0000 N   0  0  0  0  0  0  0  0  0  0  0  0
   35.1090  -12.6841    0.0000 N   0  0  0  0  0  0  0  0  0  0  0  0
   30.8061  -12.7091    0.0000 N   0  0  0  0  0  0  0  0  0  0  0  0
   -2.1619  -17.9266    0.0000 O   0  0  0  0  0  0  0  0  0  0  0  0
   23.6554  -17.7436    0.0000 O   0  0  0  0  0  0  0  0  0  0  0  0
    2.1410  -17.9017    0.0000 O   0  0  0  0  0  0  0  0  0  0  0  0
   25.7965  -14.8293    0.0000 C   0  0  0  0  0  0  0  0  0  0  0  0
   38.7052  -14.7378    0.0000 C   0  0  0  0  0  0  0  0  0  0  0  0
   33.6914  -15.1744    0.0000 C   0  0  0  0  0  0  0  0  0  0  0  0
    7.8741  -15.3615    0.0000 C   0  0  0  0  0  0  0  0  0  0  0  0
   29.3885  -15.2077    0.0000 C   0  0  0  0  0  0  0  0  0  0  0  0
   12.1811  -15.3324    0.0000 C   0  0  0  0  0  0  0  0  0  0  0  0
   18.6251  -17.3570    0.0000 C   0  0  0  0  0  0  0  0  0  0  0  0
    5.7164  -17.4485    0.0000 C   0  0  0  0  0  0  0  0  0  0  0  0
   16.4839  -15.2991    0.0000 C   0  0  0  0  0  0  0  0  0  0  0  0
   -0.7317  -15.4238    0.0000 C   0  0  0  0  0  0  0  0  0  0  0  0
   30.8061  -13.5489    0.0000 C   0  0  0  0  0  0  0  0  0  0  0  0
   20.0801  -19.0117    0.0000 C   0  0  0  0  0  0  0  0  0  0  0  0
   35.1090  -13.5198    0.0000 C   0  0  0  0  0  0  0  0  0  0  0  0
    7.1715  -19.1073    0.0000 C   0  0  0  0  0  0  0  0  0  0  0  0
   13.5988  -13.6736    0.0000 C   0  0  0  0  0  0  0  0  0  0  0  0
    9.2917  -13.7069    0.0000 C   0  0  0  0  0  0  0  0  0  0  0  0
   13.6113  -17.7935    0.0000 C   0  0  0  0  0  0  0  0  0  0  0  0
   -3.5962  -17.9182    0.0000 C   0  0  0  0  0  0  0  0  0  0  0  0
    9.3125  -17.8268    0.0000 C   0  0  0  0  0  0  0  0  0  0  0  0
   32.2612  -17.6813    0.0000 C   0  0  0  0  0  0  0  0  0  0  0  0
   30.8269  -17.6730    0.0000 C   0  0  0  0  0  0  0  0  0  0  0  0
   10.7468  -17.8351    0.0000 C   0  0  0  0  0  0  0  0  0  0  0  0
   15.0456  -17.8060    0.0000 C   0  0  0  0  0  0  0  0  0  0  0  0
   40.8753  -18.4338    0.0000 C   0  0  0  0  0  0  0  0  0  0  0  0
   41.5820  -17.1908    0.0000 C   0  0  0  0  0  0  0  0  0  0  0  0
   30.0952  -14.7961    0.0000 C   0  0  0  0  0  0  0  0  0  0  0  0
    8.5850  -14.9541    0.0000 C   0  0  0  0  0  0  0  0  0  0  0  0
   12.8879  -14.9249    0.0000 C   0  0  0  0  0  0  0  0  0  0  0  0
    6.4398  -17.8684    0.0000 C   0  0  0  0  0  0  0  0  0  0  0  0
   19.3525  -17.7728    0.0000 C   0  0  0  0  0  0  0  0  0  0  0  0
   34.4023  -14.7670    0.0000 C   0  0  0  0  0  0  0  0  0  0  0  0
    8.5850  -14.1142    0.0000 C   0  0  0  0  0  0  0  0  0  0  0  0
    6.4398  -18.6832    0.0000 C   0  0  0  0  0  0  0  0  0  0  0  0
   19.3525  -18.5917    0.0000 C   0  0  0  0  0  0  0  0  0  0  0  0
   12.8879  -14.0852    0.0000 C   0  0  0  0  0  0  0  0  0  0  0  0
   30.0952  -13.9563    0.0000 C   0  0  0  0  0  0  0  0  0  0  0  0
   34.4023  -13.9272    0.0000 C   0  0  0  0  0  0  0  0  0  0  0  0
   38.7052  -13.8939    0.0000 C   0  0  0  0  0  0  0  0  0  0  0  0
   39.4161  -15.1453    0.0000 C   0  0  0  0  0  0  0  0  0  0  0  0
   26.5074  -15.2367    0.0000 C   0  0  0  0  0  0  0  0  0  0  0  0
   25.7965  -13.9895    0.0000 C   0  0  0  0  0  0  0  0  0  0  0  0
   13.6113  -18.6333    0.0000 C   0  0  0  0  0  0  0  0  0  0  0  0
   42.3012  -17.5982    0.0000 C   0  0  0  0  0  0  0  0  0  0  0  0
   41.5945  -18.8412    0.0000 C   0  0  0  0  0  0  0  0  0  0  0  0
   42.3054  -18.4255    0.0000 C   0  0  0  0  0  0  0  0  0  0  0  0
  1  2  1  0  0  0  0
  1  3  1  6  0  0  0
 38  4  1  0  0  0  0
 40  5  1  0  0  0  0
 39  6  1  0  0  0  0
  7 14  1  0  0  0  0
  8 12  1  0  0  0  0
  9 13  1  0  0  0  0
 29 10  1  0  0  0  0
 11  3  1  0  0  0  0
 76 12  1  0  0  0  0
 72 13  1  0  0  0  0
 77 14  1  0  0  0  0
 44 15  1  0  0  0  0
 46 16  1  0  0  0  0
 45 17  1  0  0  0  0
 57 18  1  0  0  0  0
 56 19  1  0  0  0  0
 58 20  1  0  0  0  0
 63 21  1  0  0  0  0
 75 22  1  0  0  0  0
 78 23  1  0  0  0  0
 74 24  1  0  0  0  0
 79 25  1  0  0  0  0
 81 26  1  0  0  0  0
 27 21  1  0  0  0  0
 28 22  1  0  0  0  0
 29 27  1  6  0  0  0
 30 19  1  0  0  0  0
 31 20  1  0  0  0  0
 32 23  1  0  0  0  0
 33 10  1  0  0  0  0
 34  2  1  0  0  0  0
 35 28  1  6  0  0  0
 36 18  1  0  0  0  0
 37 15  1  0  0  0  0
 38  7  1  6  0  0  0
 39  8  1  6  0  0  0
 40  9  1  6  0  0  0
 41  5  1  0  0  0  0
 42  6  1  0  0  0  0
 43  4  1  0  0  0  0
 44 32  1  6  0  0  0
 45 30  1  1  0  0  0
 46 31  1  6  0  0  0
 47 25  1  0  0  0  0
 48 17  1  0  0  0  0
 49 16  1  0  0  0  0
 50 24  1  0  0  0  0
 51 26  1  0  0  0  0
 35 52  1  0  0  0  0
 44 53  1  0  0  0  0
 45 54  1  0  0  0  0
 46 55  1  0  0  0  0
 56 36  1  6  0  0  0
 57 37  1  1  0  0  0
 58 33  1  1  0  0  0
 59 84  1  0  0  0  0
 68 60  1  0  0  0  0
 61 70  1  0  0  0  0
 62 69  1  0  0  0  0
 63 47  1  1  0  0  0
 64 53  1  0  0  0  0
 65 54  1  0  0  0  0
 66 62  1  0  0  0  0
 67 55  1  0  0  0  0
 68 48  1  6  0  0  0
 73 69  1  0  0  0  0
 70120  1  0  0  0  0
 71 52  1  0  0  0  0
 72 43  1  1  0  0  0
 73 11  1  0  0  0  0
 74 41  1  0  0  0  0
 75 34  1  0  0  0  0
 76 49  1  1  0  0  0
 77 51  1  1  0  0  0
 78 42  1  1  0  0  0
 79 50  1  6  0  0  0
 80 66  1  0  0  0  0
 81 61  1  6  0  0  0
 82125  1  0  0  0  0
 83126  1  0  0  0  0
 84 62  2  0  0  0  0
 85  2  2  0  0  0  0
 86  5  2  0  0  0  0
 87  4  2  0  0  0  0
 88  6  2  0  0  0  0
 89 10  2  0  0  0  0
 90 13  2  0  0  0  0
 91 14  2  0  0  0  0
 92 11  2  0  0  0  0
 93 12  2  0  0  0  0
 94 19  2  0  0  0  0
 95 18  2  0  0  0  0
 96 15  2  0  0  0  0
 97 20  2  0  0  0  0
 98 17  2  0  0  0  0
 99 16  2  0  0  0  0
100 22  2  0  0  0  0
101 24  2  0  0  0  0
102 21  2  0  0  0  0
103 25  2  0  0  0  0
104 23  2  0  0  0  0
105 26  2  0  0  0  0
 56106  1  0  0  0  0
107 52  2  0  0  0  0
108 60  2  0  0  0  0
 58109  1  0  0  0  0
 57110  1  0  0  0  0
  1111  1  0  0  0  0
112 64  2  0  0  0  0
113 65  2  0  0  0  0
114 67  2  0  0  0  0
115 70  2  0  0  0  0
116 82  2  0  0  0  0
117 83  2  0  0  0  0
 63118  1  0  0  0  0
 68119  1  0  0  0  0
120 71  1  0  0  0  0
 39121  1  0  0  0  0
 38122  1  0  0  0  0
 40123  1  0  0  0  0
124 64  1  0  0  0  0
125118  1  0  0  0  0
126119  1  0  0  0  0
 73127  1  1  0  0  0
128 60  1  0  0  0  0
129 65  1  0  0  0  0
130 67  1  0  0  0  0
131 83  1  0  0  0  0
132 82  1  0  0  0  0
133106  1  0  0  0  0
 29134  1  0  0  0  0
 35135  1  0  0  0  0
136156  1  0  0  0  0
137158  1  0  0  0  0
138159  1  0  0  0  0
139160  1  0  0  0  0
140157  1  0  0  0  0
141155  1  0  0  0  0
111142  1  6  0  0  0
143134  1  0  0  0  0
144135  1  0  0  0  0
145109  1  0  0  0  0
146110  1  0  0  0  0
 78147  1  0  0  0  0
 77148  1  0  0  0  0
 76149  1  0  0  0  0
 72150  1  0  0  0  0
 79151  1  0  0  0  0
 81152  1  0  0  0  0
 74153  1  1  0  0  0
 75154  1  1  0  0  0
155180  1  0  0  0  0
156178  1  0  0  0  0
157181  1  0  0  0  0
158177  1  0  0  0  0
159179  1  0  0  0  0
160176  1  0  0  0  0
123161  1  0  0  0  0
111162  1  0  0  0  0
163122  1  0  0  0  0
164121  1  0  0  0  0
165121  1  0  0  0  0
166122  1  0  0  0  0
123167  1  1  0  0  0
168133  2  0  0  0  0
169133  1  0  0  0  0
170149  1  0  0  0  0
171148  1  0  0  0  0
172150  1  0  0  0  0
173152  1  0  0  0  0
174151  1  0  0  0  0
175147  1  0  0  0  0
176171  1  0  0  0  0
177173  1  0  0  0  0
178174  1  0  0  0  0
179172  1  0  0  0  0
180170  1  0  0  0  0
181175  1  0  0  0  0
182146  1  0  0  0  0
183146  1  0  0  0  0
184145  1  0  0  0  0
185145  1  0  0  0  0
186161  1  0  0  0  0
187169  2  0  0  0  0
188168  1  0  0  0  0
189187  1  0  0  0  0
 59 80  2  0  0  0  0
188189  2  0  0  0  0
M  END
> <From>
www.bindingDB.org

> <BindingDB Reactant_set_id>
51016950

> <Ligand InChI>
InChI=1S/C119H201N33O37/c1-14-64(10)95(151-107(176)76(37-23-29-47-125)139-116(185)94(63(8)9)149-105(174)74(35-21-27-45-123)135-101(170)71(32-18-24-42-120)133-88(157)56-129-100(169)85(57-153)147-98(167)66(12)132-118(187)96(67(13)155)152-99(168)70(126)51-69-55-128-59-130-69)117(186)131-65(11)97(166)134-72(33-19-25-43-121)102(171)137-77(38-40-89(158)159)104(173)148-86(58-154)114(183)142-80(49-61(4)5)109(178)145-83(53-91(162)163)112(181)136-75(36-22-28-46-124)106(175)150-93(62(6)7)115(184)138-73(34-20-26-44-122)103(172)144-82(52-87(127)156)111(180)141-79(48-60(2)3)108(177)143-81(50-68-30-16-15-17-31-68)110(179)146-84(54-92(164)165)113(182)140-78(119(188)189)39-41-90(160)161/h15-17,30-31,55,59-67,70-86,93-96,153-155H,14,18-29,32-54,56-58,120-126H2,1-13H3,(H2,127,156)(H,128,130)(H,129,169)(H,131,186)(H,132,187)(H,133,157)(H,134,166)(H,135,170)(H,136,181)(H,137,171)(H,138,184)(H,139,185)(H,140,182)(H,141,180)(H,142,183)(H,143,177)(H,144,172)(H,145,178)(H,146,179)(H,147,167)(H,148,173)(H,149,174)(H,150,175)(H,151,176)(H,152,168)(H,158,159)(H,160,161)(H,162,163)(H,164,165)(H,188,189)/t64-,65-,66-,67+,70-,71-,72-,73-,74-,75-,76-,77-,78-,79-,80-,81-,82-,83-,84-,85-,86-,93-,94-,95-,96-/m0/s1

> <Ligand InChI Key>
JKRBBXGKBLNJHJ-ACEBTPPHSA-N

> <BindingDB MonomerID>
50416563

> <BindingDB Ligand Name>
CHEMBL1215812

> <Target Name>
DNA repair protein RAD51 homolog 1

> <Target Source Organism According to Curator or DataSource>
Homo sapiens

> <Ki (nM)>


> <IC50 (nM)>
>100000

> <Kd (nM)>


> <EC50 (nM)>


> <kon (M-1-s-1)>


> <koff (s-1)>


> <pH>


> <Temp C>


> <Curation/DataSource>
ChEMBL

> <Article DOI>
10.1021/jm1002974

> <BindingDB Entry DOI>
10.7270/Q2NG4RV5

> <PMID>
20684611

> <PubChem AID>


> <Patent Number>


> <Authors>
Nomme, J; Renodon-Corniere, A; Asanomi, Y; Sakaguchi, K; Stasiak, AZ; Stasiak, A; Norden, B; Tran, V; Takahashi, M

> <Date of publication>
8/5/2010

> <Date in BindingDB>
5/22/2013

> <Institution>
Centre National de la Recherche Scientifique & Universite de Nantes

> <Link to Ligand in BindingDB>
http://www.bindingdb.org/bind/chemsearch/marvin/MolStructure.jsp?monomerid=50416563

> <Link to Ligand-Target Pair in BindingDB>
http://www.bindingdb.org/jsp/dbsearch/PrimarySearch_ki.jsp?energyterm=kJ/mole&tag=pol&polymerid=4676&target=DNA+repair+protein+RAD51+homolog+1&column=ki&startPg=0&Increment=50&submit=Search

> <Link to Ligand-Target Pair in BindingDB>
http://www.bindingdb.org/jsp/dbsearch/PrimarySearch_ki.jsp?energyterm=kJ/mole&tag=r21&monomerid=50416563&enzyme=DNA+repair+protein+RAD51+homolog+1&column=ki&startPg=0&Increment=50&submit=Search

> <Ligand HET ID in PDB>


> <PDB ID(s) for Ligand-Target Complex>


> <PubChem CID of Ligand>
49864241

> <PubChem SID of Ligand>
163365587

> <ChEBI ID of Ligand>


> <ChEMBL ID of Ligand>
CHEMBL1215812

> <DrugBank ID of Ligand>


> <IUPHAR_GRAC ID of Ligand>


> <KEGG ID of Ligand>


> <ZINC ID of Ligand>


> <Number of Protein Chains in Target (bigger than 1 implies a multichain complex)>
1

> <BindingDB Target Chain Sequence>
MAMQMQLEANADTSVEEESFGPQPISRLEQCGINANDVKKLEEAGFHTVEAVAYAPKKELINIKGISEAKADKILAEAAKLVPMGFTTATEFHQRRSEIIQITTGSKELDKLLQGGIETGSITEMFGEFRTGKTQICHTLAVTCQLPIDRGGGEGKAMYIDTEGTFRPERLLAVAERYGLSGSDVLDNVAYARAFNTDHQTQLLYQASAMMVESRYALLIVDSATALYRTDYSGRGELSARQMHLARFLRMLLRLADEFGVAVVITNQVVAQVDGAAMFAADPKKPIGGNIIAHASTTRLYLRKGRGETRICKIYDSPCLPEAEAMFAINADGVGDAKD

> <PDB ID(s) of Target Chain>
1N0W,5JZC,5NP7,5NWL,8BQ2,8BR2,8BSC

> <UniProt (SwissProt) Recommended Name of Target Chain>
DNA repair protein RAD51 homolog 1

> <UniProt (SwissProt) Entry Name of Target Chain>
RAD51_HUMAN

> <UniProt (SwissProt) Primary ID of Target Chain>
Q06609

> <UniProt (SwissProt) Secondary ID(s) of Target Chain>
B0FXP0 B2R8T6 Q6FHX9 Q6ZNA8 Q9BV60

> <UniProt (SwissProt) Alternative ID(s) of Target Chain>


> <UniProt (TrEMBL) Submitted Name of Target Chain>


> <UniProt (TrEMBL) Entry Name of Target Chain>


> <UniProt (TrEMBL) Primary ID of Target Chain>


> <UniProt (TrEMBL) Secondary ID(s) of Target Chain>


> <UniProt (TrEMBL) Alternative ID(s) of Target Chain>


$$$$

  Mrv0541 11241415252D          

187189  0  0  0  0            999 V2000
  -10.9324   -2.8113    0.0000 C   0  0  1  0  0  0  0  0  0  0  0  0
  -10.2109   -3.1992    0.0000 C   0  0  0  0  0  0  0  0  0  0  0  0
  -11.6416   -3.2493    0.0000 N   0  0  0  0  0  0  0  0  0  0  0  0
    2.6653   -2.7404    0.0000 C   0  0  0  0  0  0  0  0  0  0  0  0
    6.9616   -2.5819    0.0000 C   0  0  0  0  0  0  0  0  0  0  0  0
   24.1340   -1.9729    0.0000 C   0  0  0  0  0  0  0  0  0  0  0  0
    1.2346   -2.7863    0.0000 N   0  0  0  0  0  0  0  0  0  0  0  0
   22.7034   -2.0230    0.0000 N   0  0  0  0  0  0  0  0  0  0  0  0
    5.5267   -2.6361    0.0000 N   0  0  0  0  0  0  0  0  0  0  0  0
  -12.3632   -2.8613    0.0000 C   0  0  0  0  0  0  0  0  0  0  0  0
   15.5458   -2.2774    0.0000 C   0  0  0  0  0  0  0  0  0  0  0  0
   21.9859   -1.6392    0.0000 C   0  0  0  0  0  0  0  0  0  0  0  0
    4.8093   -2.2482    0.0000 C   0  0  0  0  0  0  0  0  0  0  0  0
    0.5130   -2.3984    0.0000 C   0  0  0  0  0  0  0  0  0  0  0  0
   28.4303   -1.8227    0.0000 C   0  0  0  0  0  0  0  0  0  0  0  0
   19.8419   -2.1273    0.0000 C   0  0  0  0  0  0  0  0  0  0  0  0
   17.6896   -1.7852    0.0000 C   0  0  0  0  0  0  0  0  0  0  0  0
   30.5700   -1.3306    0.0000 C   0  0  0  0  0  0  0  0  0  0  0  0
  -14.5029   -3.3494    0.0000 C   0  0  0  0  0  0  0  0  0  0  0  0
   13.3976   -1.9438    0.0000 C   0  0  0  0  0  0  0  0  0  0  0  0
   -8.0711   -2.7071    0.0000 C   0  0  0  0  0  0  0  0  0  0  0  0
   26.2780   -1.4849    0.0000 C   0  0  0  0  0  0  0  0  0  0  0  0
    9.1014   -2.0980    0.0000 C   0  0  0  0  0  0  0  0  0  0  0  0
   11.2578   -2.4318    0.0000 C   0  0  0  0  0  0  0  0  0  0  0  0
   -1.6267   -2.8906    0.0000 C   0  0  0  0  0  0  0  0  0  0  0  0
   14.1150   -2.3317    0.0000 N   0  0  0  0  0  0  0  0  0  0  0  0
   -7.3536   -3.0950    0.0000 N   0  0  0  0  0  0  0  0  0  0  0  0
   14.8283   -1.8895    0.0000 C   0  0  1  0  0  0  0  0  0  0  0  0
   18.4113   -2.1773    0.0000 N   0  0  0  0  0  0  0  0  0  0  0  0
   16.2590   -1.8395    0.0000 N   0  0  0  0  0  0  0  0  0  0  0  0
   26.9954   -1.8728    0.0000 N   0  0  0  0  0  0  0  0  0  0  0  0
  -13.7939   -2.9073    0.0000 N   0  0  0  0  0  0  0  0  0  0  0  0
   -9.4976   -2.7571    0.0000 N   0  0  0  0  0  0  0  0  0  0  0  0
   -6.6446   -2.6528    0.0000 C   0  0  2  0  0  0  0  0  0  0  0  0
   29.1393   -1.3807    0.0000 N   0  0  0  0  0  0  0  0  0  0  0  0
    1.9479   -2.3525    0.0000 C   0  0  1  0  0  0  0  0  0  0  0  0
   23.4166   -1.5850    0.0000 C   0  0  1  0  0  0  0  0  0  0  0  0
    6.2441   -2.1940    0.0000 C   0  0  1  0  0  0  0  0  0  0  0  0
   31.2916   -1.7185    0.0000 N   0  0  0  0  0  0  0  0  0  0  0  0
    7.6707   -2.1440    0.0000 N   0  0  0  0  0  0  0  0  0  0  0  0
    3.3786   -2.3025    0.0000 N   0  0  0  0  0  0  0  0  0  0  0  0
   24.8515   -1.5349    0.0000 N   0  0  0  0  0  0  0  0  0  0  0  0
   19.1204   -1.7394    0.0000 C   0  0  1  0  0  0  0  0  0  0  0  0
   27.7087   -1.4348    0.0000 C   0  0  1  0  0  0  0  0  0  0  0  0
   11.9669   -1.9938    0.0000 N   0  0  0  0  0  0  0  0  0  0  0  0
   20.5552   -1.6893    0.0000 N   0  0  0  0  0  0  0  0  0  0  0  0
   -0.9135   -2.4484    0.0000 N   0  0  0  0  0  0  0  0  0  0  0  0
    9.8230   -2.4859    0.0000 N   0  0  0  0  0  0  0  0  0  0  0  0
   -5.9230   -3.0407    0.0000 C   0  0  0  0  0  0  0  0  0  0  0  0
  -13.0722   -3.2952    0.0000 C   0  0  1  0  0  0  0  0  0  0  0  0
   27.6837   -0.5964    0.0000 C   0  0  0  0  0  0  0  0  0  0  0  0
   19.0995   -0.9052    0.0000 C   0  0  0  0  0  0  0  0  0  0  0  0
   16.9764   -2.2274    0.0000 C   0  0  1  0  0  0  0  0  0  0  0  0
   29.8568   -1.7686    0.0000 C   0  0  1  0  0  0  0  0  0  0  0  0
  -11.0868   -4.9970    0.0000 N   0  0  0  0  0  0  0  0  0  0  0  0
  -15.2287   -2.9573    0.0000 C   0  0  1  0  0  0  0  0  0  0  0  0
   32.0049   -1.2806    0.0000 C   0  0  2  0  0  0  0  0  0  0  0  0
   32.7223   -1.6643    0.0000 C   0  0  0  0  0  0  0  0  0  0  0  0
  -15.9337   -3.3911    0.0000 N   0  0  0  0  0  0  0  0  0  0  0  0
  -12.3131   -4.5131    0.0000 C   0  0  0  0  0  0  0  0  0  0  0  0
   -3.0616   -2.9448    0.0000 N   0  0  0  0  0  0  0  0  0  0  0  0
   12.6843   -2.3817    0.0000 C   0  0  1  0  0  0  0  0  0  0  0  0
  -13.0514   -4.1169    0.0000 C   0  0  0  0  0  0  0  0  0  0  0  0
   28.3802   -0.1669    0.0000 C   0  0  0  0  0  0  0  0  0  0  0  0
  -12.3674   -5.3890    0.0000 N   0  0  0  0  0  0  0  0  0  0  0  0
   19.7919   -0.4713    0.0000 C   0  0  0  0  0  0  0  0  0  0  0  0
   -3.7790   -2.5569    0.0000 C   0  0  0  0  0  0  0  0  0  0  0  0
   -5.2097   -2.6070    0.0000 N   0  0  0  0  0  0  0  0  0  0  0  0
    4.0961   -2.6904    0.0000 C   0  0  1  0  0  0  0  0  0  0  0  0
    8.3881   -2.5319    0.0000 C   0  0  1  0  0  0  0  0  0  0  0  0
   -8.7801   -3.1450    0.0000 C   0  0  1  0  0  0  0  0  0  0  0  0
   21.2726   -2.0772    0.0000 C   0  0  1  0  0  0  0  0  0  0  0  0
   -0.1919   -2.8363    0.0000 C   0  0  1  0  0  0  0  0  0  0  0  0
   25.5689   -1.9228    0.0000 C   0  0  1  0  0  0  0  0  0  0  0  0
   10.5320   -2.0397    0.0000 C   0  0  1  0  0  0  0  0  0  0  0  0
  -11.5831   -5.6560    0.0000 C   0  0  0  0  0  0  0  0  0  0  0  0
  -16.6552   -2.9990    0.0000 C   0  0  0  0  0  0  0  0  0  0  0  0
   -2.3483   -2.5027    0.0000 C   0  0  1  0  0  0  0  0  0  0  0  0
   13.4643   -4.4130    0.0000 C   0  0  0  0  0  0  0  0  0  0  0  0
  -11.5665   -4.3254    0.0000 C   0  0  0  0  0  0  0  0  0  0  0  0
  -10.1900   -4.0126    0.0000 O   0  0  0  0  0  0  0  0  0  0  0  0
    6.9824   -3.4036    0.0000 O   0  0  0  0  0  0  0  0  0  0  0  0
    2.6904   -3.5580    0.0000 O   0  0  0  0  0  0  0  0  0  0  0  0
   24.1590   -2.7905    0.0000 O   0  0  0  0  0  0  0  0  0  0  0  0
   15.5708   -3.0950    0.0000 O   0  0  0  0  0  0  0  0  0  0  0  0
  -12.3840   -2.0230    0.0000 O   0  0  0  0  0  0  0  0  0  0  0  0
    0.4922   -1.5642    0.0000 O   0  0  0  0  0  0  0  0  0  0  0  0
   21.9609   -0.8009    0.0000 O   0  0  0  0  0  0  0  0  0  0  0  0
    4.7843   -1.4098    0.0000 O   0  0  0  0  0  0  0  0  0  0  0  0
   30.5450   -0.4922    0.0000 O   0  0  0  0  0  0  0  0  0  0  0  0
   19.8628   -2.9448    0.0000 O   0  0  0  0  0  0  0  0  0  0  0  0
   17.6646   -0.9552    0.0000 O   0  0  0  0  0  0  0  0  0  0  0  0
   28.4553   -2.6361    0.0000 O   0  0  0  0  0  0  0  0  0  0  0  0
  -14.4779   -4.1669    0.0000 O   0  0  0  0  0  0  0  0  0  0  0  0
    9.0805   -1.2555    0.0000 O   0  0  0  0  0  0  0  0  0  0  0  0
   13.3725   -1.1054    0.0000 O   0  0  0  0  0  0  0  0  0  0  0  0
   11.2787   -3.2493    0.0000 O   0  0  0  0  0  0  0  0  0  0  0  0
   26.2529   -0.6507    0.0000 O   0  0  0  0  0  0  0  0  0  0  0  0
   -1.6059   -3.7081    0.0000 O   0  0  0  0  0  0  0  0  0  0  0  0
   -8.0919   -1.8687    0.0000 O   0  0  0  0  0  0  0  0  0  0  0  0
  -15.2495   -2.1231    0.0000 C   0  0  0  0  0  0  0  0  0  0  0  0
   31.9798   -0.4422    0.0000 C   0  0  0  0  0  0  0  0  0  0  0  0
   -5.8980   -3.8583    0.0000 O   0  0  0  0  0  0  0  0  0  0  0  0
   32.7474   -2.4859    0.0000 O   0  0  0  0  0  0  0  0  0  0  0  0
   29.8860   -2.5903    0.0000 C   0  0  0  0  0  0  0  0  0  0  0  0
   17.0056   -3.0449    0.0000 C   0  0  0  0  0  0  0  0  0  0  0  0
  -10.9534   -1.9729    0.0000 C   0  0  2  0  0  0  0  0  0  0  0  0
   29.1018   -0.5548    0.0000 O   0  0  0  0  0  0  0  0  0  0  0  0
   20.5135   -0.8634    0.0000 O   0  0  0  0  0  0  0  0  0  0  0  0
   -3.7998   -1.7185    0.0000 O   0  0  0  0  0  0  0  0  0  0  0  0
  -16.6845   -2.1773    0.0000 O   0  0  0  0  0  0  0  0  0  0  0  0
   14.2026   -4.8093    0.0000 O   0  0  0  0  0  0  0  0  0  0  0  0
   12.7093   -3.1992    0.0000 C   0  0  0  0  0  0  0  0  0  0  0  0
   -4.4881   -2.9949    0.0000 C   0  0  0  0  0  0  0  0  0  0  0  0
   23.3916   -0.7466    0.0000 C   0  0  0  0  0  0  0  0  0  0  0  0
    1.9187   -1.5141    0.0000 C   0  0  0  0  0  0  0  0  0  0  0  0
    6.2149   -1.3597    0.0000 C   0  0  2  0  0  0  0  0  0  0  0  0
   28.3594    0.6674    0.0000 N   0  0  0  0  0  0  0  0  0  0  0  0
   13.4435   -3.5955    0.0000 C   0  0  0  0  0  0  0  0  0  0  0  0
   33.4356   -1.2305    0.0000 O   0  0  0  0  0  0  0  0  0  0  0  0
   19.7710    0.3629    0.0000 O   0  0  0  0  0  0  0  0  0  0  0  0
   12.7719   -4.8385    0.0000 O   0  0  0  0  0  0  0  0  0  0  0  0
   32.6765   -0.0125    0.0000 C   0  0  0  0  0  0  0  0  0  0  0  0
  -14.5530   -1.6976    0.0000 C   0  0  0  0  0  0  0  0  0  0  0  0
   14.8033   -1.0553    0.0000 C   0  0  0  0  0  0  0  0  0  0  0  0
   -6.6696   -1.8227    0.0000 C   0  0  0  0  0  0  0  0  0  0  0  0
  -18.0901   -3.0490    0.0000 N   0  0  0  0  0  0  0  0  0  0  0  0
   -1.0303    0.8634    0.0000 N   0  0  0  0  0  0  0  0  0  0  0  0
    5.6393   -5.9313    0.0000 N   0  0  0  0  0  0  0  0  0  0  0  0
    1.3472   -6.0857    0.0000 N   0  0  0  0  0  0  0  0  0  0  0  0
   27.1081   -5.1680    0.0000 N   0  0  0  0  0  0  0  0  0  0  0  0
   22.8160   -5.3182    0.0000 N   0  0  0  0  0  0  0  0  0  0  0  0
   11.8543    1.3181    0.0000 N   0  0  0  0  0  0  0  0  0  0  0  0
  -10.2567   -1.5433    0.0000 O   0  0  0  0  0  0  0  0  0  0  0  0
  -17.3685   -3.4370    0.0000 C   0  0  0  0  0  0  0  0  0  0  0  0
   -7.3996   -1.4223    0.0000 O   0  0  0  0  0  0  0  0  0  0  0  0
   14.0692   -0.6590    0.0000 O   0  0  0  0  0  0  0  0  0  0  0  0
   30.6201   -2.9865    0.0000 C   0  0  0  0  0  0  0  0  0  0  0  0
   17.7397   -3.4412    0.0000 C   0  0  0  0  0  0  0  0  0  0  0  0
    4.1252   -3.5037    0.0000 C   0  0  0  0  0  0  0  0  0  0  0  0
   10.5112   -1.2096    0.0000 C   0  0  0  0  0  0  0  0  0  0  0  0
   25.5897   -2.7362    0.0000 C   0  0  0  0  0  0  0  0  0  0  0  0
   -0.1710   -3.6581    0.0000 C   0  0  0  0  0  0  0  0  0  0  0  0
   21.2977   -2.8906    0.0000 C   0  0  0  0  0  0  0  0  0  0  0  0
   -2.3733   -1.6643    0.0000 C   0  0  0  0  0  0  0  0  0  0  0  0
   -8.7551   -3.9625    0.0000 C   0  0  0  0  0  0  0  0  0  0  0  0
    8.4132   -3.3494    0.0000 C   0  0  0  0  0  0  0  0  0  0  0  0
   11.8751    0.4880    0.0000 C   0  0  0  0  0  0  0  0  0  0  0  0
   27.0871   -4.3504    0.0000 C   0  0  0  0  0  0  0  0  0  0  0  0
   -1.0053    0.0250    0.0000 C   0  0  0  0  0  0  0  0  0  0  0  0
    5.6185   -5.1137    0.0000 C   0  0  0  0  0  0  0  0  0  0  0  0
    1.3222   -5.2681    0.0000 C   0  0  0  0  0  0  0  0  0  0  0  0
   22.7910   -4.5006    0.0000 C   0  0  0  0  0  0  0  0  0  0  0  0
    5.4808   -0.9635    0.0000 C   0  0  0  0  0  0  0  0  0  0  0  0
  -11.6874   -1.5767    0.0000 C   0  0  0  0  0  0  0  0  0  0  0  0
    1.1846   -1.1179    0.0000 C   0  0  0  0  0  0  0  0  0  0  0  0
    2.6153   -1.0845    0.0000 C   0  0  0  0  0  0  0  0  0  0  0  0
   22.6574   -0.3504    0.0000 C   0  0  0  0  0  0  0  0  0  0  0  0
   24.0839   -0.3211    0.0000 C   0  0  0  0  0  0  0  0  0  0  0  0
    6.9116   -0.9302    0.0000 C   0  0  0  0  0  0  0  0  0  0  0  0
   33.4064   -0.4004    0.0000 C   0  0  0  0  0  0  0  0  0  0  0  0
  -13.8230   -2.0772    0.0000 C   0  0  0  0  0  0  0  0  0  0  0  0
   32.6389    0.8051    0.0000 C   0  0  0  0  0  0  0  0  0  0  0  0
  -14.5863   -0.8717    0.0000 C   0  0  0  0  0  0  0  0  0  0  0  0
    0.5631   -4.0543    0.0000 C   0  0  0  0  0  0  0  0  0  0  0  0
    4.8594   -3.9000    0.0000 C   0  0  0  0  0  0  0  0  0  0  0  0
   -1.6768   -1.2388    0.0000 C   0  0  0  0  0  0  0  0  0  0  0  0
   11.2077   -0.7800    0.0000 C   0  0  0  0  0  0  0  0  0  0  0  0
   26.3280   -3.1366    0.0000 C   0  0  0  0  0  0  0  0  0  0  0  0
   22.0318   -3.2868    0.0000 C   0  0  0  0  0  0  0  0  0  0  0  0
   -1.6976   -0.4004    0.0000 C   0  0  0  0  0  0  0  0  0  0  0  0
   11.1786    0.0584    0.0000 C   0  0  0  0  0  0  0  0  0  0  0  0
    4.8802   -4.7175    0.0000 C   0  0  0  0  0  0  0  0  0  0  0  0
   22.0568   -4.1044    0.0000 C   0  0  0  0  0  0  0  0  0  0  0  0
   26.3489   -3.9542    0.0000 C   0  0  0  0  0  0  0  0  0  0  0  0
    0.5881   -4.8719    0.0000 C   0  0  0  0  0  0  0  0  0  0  0  0
   17.7606   -4.2628    0.0000 C   0  0  0  0  0  0  0  0  0  0  0  0
   30.6451   -3.8040    0.0000 C   0  0  0  0  0  0  0  0  0  0  0  0
   31.3292   -2.5444    0.0000 C   0  0  0  0  0  0  0  0  0  0  0  0
   18.4529   -3.0032    0.0000 C   0  0  0  0  0  0  0  0  0  0  0  0
    5.4600   -0.1460    0.0000 C   0  0  0  0  0  0  0  0  0  0  0  0
  -13.1265   -1.6350    0.0000 C   0  0  0  0  0  0  0  0  0  0  0  0
   33.3397    1.2513    0.0000 C   0  0  0  0  0  0  0  0  0  0  0  0
   34.1030    0.0458    0.0000 C   0  0  0  0  0  0  0  0  0  0  0  0
  -13.8898   -0.4297    0.0000 C   0  0  0  0  0  0  0  0  0  0  0  0
  -13.1598   -0.8134    0.0000 C   0  0  0  0  0  0  0  0  0  0  0  0
   34.0696    0.8676    0.0000 C   0  0  0  0  0  0  0  0  0  0  0  0
  1  2  1  0  0  0  0
  1  3  1  1  0  0  0
 36  4  1  0  0  0  0
 38  5  1  0  0  0  0
 37  6  1  0  0  0  0
  7 14  1  0  0  0  0
  8 12  1  0  0  0  0
  9 13  1  0  0  0  0
 10  3  1  0  0  0  0
 28 11  1  0  0  0  0
 72 12  1  0  0  0  0
 69 13  1  0  0  0  0
 73 14  1  0  0  0  0
 44 15  1  0  0  0  0
 43 16  1  0  0  0  0
 53 17  1  0  0  0  0
 54 18  1  0  0  0  0
 19 32  1  0  0  0  0
 62 20  1  0  0  0  0
 71 21  1  0  0  0  0
 74 22  1  0  0  0  0
 70 23  1  0  0  0  0
 75 24  1  0  0  0  0
 78 25  1  0  0  0  0
 26 20  1  0  0  0  0
 27 21  1  0  0  0  0
 28 26  1  1  0  0  0
 29 17  1  0  0  0  0
 30 11  1  0  0  0  0
 31 22  1  0  0  0  0
 50 32  1  6  0  0  0
 33  2  1  0  0  0  0
 34 27  1  1  0  0  0
 35 15  1  0  0  0  0
 36  7  1  1  0  0  0
 37  8  1  1  0  0  0
 38  9  1  1  0  0  0
 39 18  1  0  0  0  0
 40  5  1  0  0  0  0
 41  4  1  0  0  0  0
 42  6  1  0  0  0  0
 43 29  1  1  0  0  0
 44 31  1  1  0  0  0
 45 24  1  0  0  0  0
 46 16  1  0  0  0  0
 47 25  1  0  0  0  0
 48 23  1  0  0  0  0
 34 49  1  0  0  0  0
 50 10  1  0  0  0  0
 44 51  1  0  0  0  0
 43 52  1  0  0  0  0
 53 30  1  6  0  0  0
 54 35  1  6  0  0  0
 55 80  1  0  0  0  0
 56 19  1  0  0  0  0
 57 39  1  1  0  0  0
 57 58  1  0  0  0  0
 56 59  1  1  0  0  0
 60 63  1  0  0  0  0
 61 67  1  0  0  0  0
 62 45  1  6  0  0  0
 50 63  1  0  0  0  0
 64 51  1  0  0  0  0
 65 60  1  0  0  0  0
 66 52  1  0  0  0  0
 67114  1  0  0  0  0
 68 49  1  0  0  0  0
 69 41  1  6  0  0  0
 70 40  1  0  0  0  0
 71 33  1  0  0  0  0
 72 46  1  6  0  0  0
 73 47  1  6  0  0  0
 74 42  1  6  0  0  0
 75 48  1  1  0  0  0
 76 65  1  0  0  0  0
 77 59  1  0  0  0  0
 78 61  1  1  0  0  0
 79119  1  0  0  0  0
 80 60  2  0  0  0  0
 81  2  2  0  0  0  0
 82  5  2  0  0  0  0
 83  4  2  0  0  0  0
 84  6  2  0  0  0  0
 85 11  2  0  0  0  0
 86 10  2  0  0  0  0
 87 14  2  0  0  0  0
 88 12  2  0  0  0  0
 89 13  2  0  0  0  0
 90 18  2  0  0  0  0
 91 16  2  0  0  0  0
 92 17  2  0  0  0  0
 93 15  2  0  0  0  0
 94 19  2  0  0  0  0
 95 23  2  0  0  0  0
 96 20  2  0  0  0  0
 97 24  2  0  0  0  0
 98 22  2  0  0  0  0
 99 25  2  0  0  0  0
100 21  2  0  0  0  0
 56101  1  0  0  0  0
 57102  1  0  0  0  0
103 49  2  0  0  0  0
104 58  2  0  0  0  0
 54105  1  0  0  0  0
 53106  1  0  0  0  0
  1107  1  0  0  0  0
108 64  2  0  0  0  0
109 66  2  0  0  0  0
110 67  2  0  0  0  0
111 77  2  0  0  0  0
112 79  2  0  0  0  0
 62113  1  0  0  0  0
114 68  1  0  0  0  0
 37115  1  0  0  0  0
 36116  1  0  0  0  0
 38117  1  0  0  0  0
118 64  1  0  0  0  0
119113  1  0  0  0  0
120 58  1  0  0  0  0
121 66  1  0  0  0  0
122 79  1  0  0  0  0
123102  1  0  0  0  0
124101  1  0  0  0  0
 28125  1  0  0  0  0
 34126  1  0  0  0  0
127135  1  0  0  0  0
128150  1  0  0  0  0
129151  1  0  0  0  0
130152  1  0  0  0  0
131149  1  0  0  0  0
132153  1  0  0  0  0
133148  1  0  0  0  0
107134  1  1  0  0  0
135 77  1  0  0  0  0
136126  1  0  0  0  0
137125  1  0  0  0  0
138105  1  0  0  0  0
139106  1  0  0  0  0
 69140  1  0  0  0  0
 75141  1  0  0  0  0
 74142  1  0  0  0  0
 73143  1  0  0  0  0
 72144  1  0  0  0  0
 78145  1  0  0  0  0
 71146  1  6  0  0  0
 70147  1  6  0  0  0
148172  1  0  0  0  0
149175  1  0  0  0  0
150171  1  0  0  0  0
151173  1  0  0  0  0
152176  1  0  0  0  0
153174  1  0  0  0  0
117154  1  0  0  0  0
107155  1  0  0  0  0
156116  1  0  0  0  0
157116  1  0  0  0  0
158115  1  0  0  0  0
159115  1  0  0  0  0
117160  1  6  0  0  0
161123  2  0  0  0  0
162124  2  0  0  0  0
163123  1  0  0  0  0
164124  1  0  0  0  0
165143  1  0  0  0  0
166140  1  0  0  0  0
167145  1  0  0  0  0
168141  1  0  0  0  0
169142  1  0  0  0  0
170144  1  0  0  0  0
171167  1  0  0  0  0
172168  1  0  0  0  0
173166  1  0  0  0  0
174170  1  0  0  0  0
175169  1  0  0  0  0
176165  1  0  0  0  0
177139  1  0  0  0  0
178138  1  0  0  0  0
179138  1  0  0  0  0
180139  1  0  0  0  0
181154  1  0  0  0  0
182162  1  0  0  0  0
183163  2  0  0  0  0
184161  1  0  0  0  0
185164  2  0  0  0  0
186185  1  0  0  0  0
187183  1  0  0  0  0
 55 76  2  0  0  0  0
182186  2  0  0  0  0
184187  2  0  0  0  0
M  END
> <From>
www.bindingDB.org

> <BindingDB Reactant_set_id>
51016951

> <Ligand InChI>
InChI=1S/C121H201N33O33/c1-14-68(10)98(153-109(174)80(42-26-32-50-127)142-118(183)97(67(8)9)151-107(172)78(40-24-30-48-125)138-103(168)75(37-21-27-45-122)135-93(160)60-131-102(167)89(61-155)149-101(166)70(12)134-120(185)99(71(13)157)154-115(180)85(55-74-59-130-63-132-74)145-112(177)84(136-92(159)58-128)53-72-33-17-15-18-34-72)119(184)133-69(11)100(165)137-76(38-22-28-46-123)104(169)140-81(43-44-94(161)162)106(171)150-90(62-156)116(181)144-82(51-64(2)3)110(175)147-87(57-95(163)164)114(179)139-79(41-25-31-49-126)108(173)152-96(66(6)7)117(182)141-77(39-23-29-47-124)105(170)146-86(56-91(129)158)113(178)143-83(52-65(4)5)111(176)148-88(121(186)187)54-73-35-19-16-20-36-73/h15-20,33-36,59,63-71,75-90,96-99,155-157H,14,21-32,37-58,60-62,122-128H2,1-13H3,(H2,129,158)(H,130,132)(H,131,167)(H,133,184)(H,134,185)(H,135,160)(H,136,159)(H,137,165)(H,138,168)(H,139,179)(H,140,169)(H,141,182)(H,142,183)(H,143,178)(H,144,181)(H,145,177)(H,146,170)(H,147,175)(H,148,176)(H,149,166)(H,150,171)(H,151,172)(H,152,173)(H,153,174)(H,154,180)(H,161,162)(H,163,164)(H,186,187)/t68-,69-,70-,71+,75-,76-,77-,78-,79-,80-,81-,82-,83-,84-,85-,86-,87-,88-,89-,90-,96-,97-,98-,99-/m0/s1

> <Ligand InChI Key>
JXEIUXCHCRAUMP-SRJRRBQKSA-N

> <BindingDB MonomerID>
50416564

> <BindingDB Ligand Name>
CHEMBL1215813

> <Target Name>
DNA repair protein RAD51 homolog 1

> <Target Source Organism According to Curator or DataSource>
Homo sapiens

> <Ki (nM)>


> <IC50 (nM)>
 11000

> <Kd (nM)>


> <EC50 (nM)>


> <kon (M-1-s-1)>


> <koff (s-1)>


> <pH>


> <Temp C>


> <Curation/DataSource>
ChEMBL

> <Article DOI>
10.1021/jm1002974

> <BindingDB Entry DOI>
10.7270/Q2NG4RV5

> <PMID>
20684611

> <PubChem AID>


> <Patent Number>


> <Authors>
Nomme, J; Renodon-Corniere, A; Asanomi, Y; Sakaguchi, K; Stasiak, AZ; Stasiak, A; Norden, B; Tran, V; Takahashi, M

> <Date of publication>
8/5/2010

> <Date in BindingDB>
5/22/2013

> <Institution>
Centre National de la Recherche Scientifique & Universite de Nantes

> <Link to Ligand in BindingDB>
http://www.bindingdb.org/bind/chemsearch/marvin/MolStructure.jsp?monomerid=50416564

> <Link to Ligand-Target Pair in BindingDB>
http://www.bindingdb.org/jsp/dbsearch/PrimarySearch_ki.jsp?energyterm=kJ/mole&tag=pol&polymerid=4676&target=DNA+repair+protein+RAD51+homolog+1&column=ki&startPg=0&Increment=50&submit=Search

> <Link to Ligand-Target Pair in BindingDB>
http://www.bindingdb.org/jsp/dbsearch/PrimarySearch_ki.jsp?energyterm=kJ/mole&tag=r21&monomerid=50416564&enzyme=DNA+repair+protein+RAD51+homolog+1&column=ki&startPg=0&Increment=50&submit=Search

> <Ligand HET ID in PDB>


> <PDB ID(s) for Ligand-Target Complex>


> <PubChem CID of Ligand>
49864242

> <PubChem SID of Ligand>
163365588

> <ChEBI ID of Ligand>


> <ChEMBL ID of Ligand>
CHEMBL1215813

> <DrugBank ID of Ligand>


> <IUPHAR_GRAC ID of Ligand>


> <KEGG ID of Ligand>


> <ZINC ID of Ligand>


> <Number of Protein Chains in Target (bigger than 1 implies a multichain complex)>
1

> <BindingDB Target Chain Sequence>
MAMQMQLEANADTSVEEESFGPQPISRLEQCGINANDVKKLEEAGFHTVEAVAYAPKKELINIKGISEAKADKILAEAAKLVPMGFTTATEFHQRRSEIIQITTGSKELDKLLQGGIETGSITEMFGEFRTGKTQICHTLAVTCQLPIDRGGGEGKAMYIDTEGTFRPERLLAVAERYGLSGSDVLDNVAYARAFNTDHQTQLLYQASAMMVESRYALLIVDSATALYRTDYSGRGELSARQMHLARFLRMLLRLADEFGVAVVITNQVVAQVDGAAMFAADPKKPIGGNIIAHASTTRLYLRKGRGETRICKIYDSPCLPEAEAMFAINADGVGDAKD

> <PDB ID(s) of Target Chain>
1N0W,5JZC,5NP7,5NWL,8BQ2,8BR2,8BSC

> <UniProt (SwissProt) Recommended Name of Target Chain>
DNA repair protein RAD51 homolog 1

> <UniProt (SwissProt) Entry Name of Target Chain>
RAD51_HUMAN

> <UniProt (SwissProt) Primary ID of Target Chain>
Q06609

> <UniProt (SwissProt) Secondary ID(s) of Target Chain>
B0FXP0 B2R8T6 Q6FHX9 Q6ZNA8 Q9BV60

> <UniProt (SwissProt) Alternative ID(s) of Target Chain>


> <UniProt (TrEMBL) Submitted Name of Target Chain>


> <UniProt (TrEMBL) Entry Name of Target Chain>


> <UniProt (TrEMBL) Primary ID of Target Chain>


> <UniProt (TrEMBL) Secondary ID(s) of Target Chain>


> <UniProt (TrEMBL) Alternative ID(s) of Target Chain>


$$$$

  Mrv0541 11241415252D          

172173  0  0  0  0            999 V2000
   -4.9417  -10.6167    0.0000 C   0  0  1  0  0  0  0  0  0  0  0  0
   -4.2167  -11.0417    0.0000 C   0  0  0  0  0  0  0  0  0  0  0  0
   -5.6500  -11.0292    0.0000 N   0  0  0  0  0  0  0  0  0  0  0  0
    8.6958  -11.1333    0.0000 C   0  0  0  0  0  0  0  0  0  0  0  0
   13.0000  -11.1667    0.0000 C   0  0  0  0  0  0  0  0  0  0  0  0
   30.2125  -11.2917    0.0000 C   0  0  0  0  0  0  0  0  0  0  0  0
    7.2583  -11.1250    0.0000 N   0  0  0  0  0  0  0  0  0  0  0  0
   28.7792  -11.2792    0.0000 N   0  0  0  0  0  0  0  0  0  0  0  0
   11.5667  -11.1542    0.0000 N   0  0  0  0  0  0  0  0  0  0  0  0
   -6.3708  -10.6125    0.0000 C   0  0  0  0  0  0  0  0  0  0  0  0
   21.6083  -11.2292    0.0000 C   0  0  0  0  0  0  0  0  0  0  0  0
   28.0542  -10.8583    0.0000 C   0  0  0  0  0  0  0  0  0  0  0  0
   10.8375  -10.7333    0.0000 C   0  0  0  0  0  0  0  0  0  0  0  0
    6.5375  -10.7000    0.0000 C   0  0  0  0  0  0  0  0  0  0  0  0
   34.5208  -11.3208    0.0000 C   0  0  0  0  0  0  0  0  0  0  0  0
   25.9125  -11.2583    0.0000 C   0  0  0  0  0  0  0  0  0  0  0  0
   23.7500  -10.8250    0.0000 C   0  0  0  0  0  0  0  0  0  0  0  0
   19.4458  -10.7958    0.0000 C   0  0  0  0  0  0  0  0  0  0  0  0
   -2.0708  -10.6417    0.0000 C   0  0  0  0  0  0  0  0  0  0  0  0
   32.3583  -10.8917    0.0000 C   0  0  0  0  0  0  0  0  0  0  0  0
   15.1458  -10.7667    0.0000 C   0  0  0  0  0  0  0  0  0  0  0  0
   17.3042  -11.1958    0.0000 C   0  0  0  0  0  0  0  0  0  0  0  0
   -8.5250  -11.0208    0.0000 C   0  0  0  0  0  0  0  0  0  0  0  0
    4.3917  -11.1042    0.0000 C   0  0  0  0  0  0  0  0  0  0  0  0
   20.1708  -11.2167    0.0000 N   0  0  0  0  0  0  0  0  0  0  0  0
   -1.3417  -11.0625    0.0000 N   0  0  0  0  0  0  0  0  0  0  0  0
   20.8792  -10.8083    0.0000 C   0  0  1  0  0  0  0  0  0  0  0  0
   24.4750  -11.2500    0.0000 N   0  0  0  0  0  0  0  0  0  0  0  0
   33.0875  -11.3125    0.0000 N   0  0  0  0  0  0  0  0  0  0  0  0
   22.3167  -10.8167    0.0000 N   0  0  0  0  0  0  0  0  0  0  0  0
   -3.5042  -10.6292    0.0000 N   0  0  0  0  0  0  0  0  0  0  0  0
   -0.6375  -10.6500    0.0000 C   0  0  2  0  0  0  0  0  0  0  0  0
   -7.8042  -10.6042    0.0000 N   0  0  0  0  0  0  0  0  0  0  0  0
    7.9708  -10.7125    0.0000 C   0  0  1  0  0  0  0  0  0  0  0  0
   29.4875  -10.8667    0.0000 C   0  0  1  0  0  0  0  0  0  0  0  0
   12.2708  -10.7417    0.0000 C   0  0  1  0  0  0  0  0  0  0  0  0
   35.2250  -10.9083    0.0000 N   0  0  0  0  0  0  0  0  0  0  0  0
   13.7042  -10.7542    0.0000 N   0  0  0  0  0  0  0  0  0  0  0  0
    9.4042  -10.7250    0.0000 N   0  0  0  0  0  0  0  0  0  0  0  0
   30.9208  -10.8792    0.0000 N   0  0  0  0  0  0  0  0  0  0  0  0
   25.1833  -10.8375    0.0000 C   0  0  1  0  0  0  0  0  0  0  0  0
   33.7917  -10.9000    0.0000 C   0  0  1  0  0  0  0  0  0  0  0  0
   18.0125  -10.7833    0.0000 N   0  0  0  0  0  0  0  0  0  0  0  0
   26.6208  -10.8500    0.0000 N   0  0  0  0  0  0  0  0  0  0  0  0
    5.1042  -10.6917    0.0000 N   0  0  0  0  0  0  0  0  0  0  0  0
   15.8708  -11.1875    0.0000 N   0  0  0  0  0  0  0  0  0  0  0  0
    0.0917  -11.0708    0.0000 C   0  0  0  0  0  0  0  0  0  0  0  0
   -7.0833  -11.0208    0.0000 C   0  0  1  0  0  0  0  0  0  0  0  0
   33.7917  -10.0792    0.0000 C   0  0  0  0  0  0  0  0  0  0  0  0
   25.1833  -10.0250    0.0000 C   0  0  0  0  0  0  0  0  0  0  0  0
   23.0417  -11.2375    0.0000 C   0  0  1  0  0  0  0  0  0  0  0  0
   -5.1167  -12.7042    0.0000 N   0  0  0  0  0  0  0  0  0  0  0  0
   35.9542  -11.3333    0.0000 C   0  0  2  0  0  0  0  0  0  0  0  0
   36.6583  -10.9208    0.0000 C   0  0  0  0  0  0  0  0  0  0  0  0
   -6.3750  -12.2667    0.0000 C   0  0  0  0  0  0  0  0  0  0  0  0
    2.9583  -11.0917    0.0000 N   0  0  0  0  0  0  0  0  0  0  0  0
   18.7375  -11.2083    0.0000 C   0  0  1  0  0  0  0  0  0  0  0  0
   -7.0833  -11.8542    0.0000 C   0  0  0  0  0  0  0  0  0  0  0  0
   34.5208   -9.6625    0.0000 C   0  0  0  0  0  0  0  0  0  0  0  0
   25.9125   -9.6000    0.0000 C   0  0  0  0  0  0  0  0  0  0  0  0
   -6.3875  -13.1042    0.0000 N   0  0  0  0  0  0  0  0  0  0  0  0
    2.2292  -10.6708    0.0000 C   0  0  0  0  0  0  0  0  0  0  0  0
    0.7958  -10.6583    0.0000 N   0  0  0  0  0  0  0  0  0  0  0  0
   10.1333  -11.1458    0.0000 C   0  0  1  0  0  0  0  0  0  0  0  0
   -2.7792  -11.0500    0.0000 C   0  0  1  0  0  0  0  0  0  0  0  0
   14.4333  -11.1750    0.0000 C   0  0  1  0  0  0  0  0  0  0  0  0
    5.8250  -11.1125    0.0000 C   0  0  1  0  0  0  0  0  0  0  0  0
   27.3458  -11.2708    0.0000 C   0  0  1  0  0  0  0  0  0  0  0  0
   31.6458  -11.3000    0.0000 C   0  0  1  0  0  0  0  0  0  0  0  0
   16.5792  -10.7750    0.0000 C   0  0  1  0  0  0  0  0  0  0  0  0
   -5.6083  -13.3708    0.0000 C   0  0  0  0  0  0  0  0  0  0  0  0
    3.6708  -10.6833    0.0000 C   0  0  1  0  0  0  0  0  0  0  0  0
   -9.2375  -10.6083    0.0000 C   0  0  2  0  0  0  0  0  0  0  0  0
   19.4458  -13.2958    0.0000 C   0  0  0  0  0  0  0  0  0  0  0  0
   -5.5917  -12.0292    0.0000 C   0  0  0  0  0  0  0  0  0  0  0  0
   -4.2167  -11.8750    0.0000 O   0  0  0  0  0  0  0  0  0  0  0  0
   13.0000  -12.0000    0.0000 O   0  0  0  0  0  0  0  0  0  0  0  0
    8.6958  -11.9708    0.0000 O   0  0  0  0  0  0  0  0  0  0  0  0
   30.2125  -12.1250    0.0000 O   0  0  0  0  0  0  0  0  0  0  0  0
   21.6083  -12.0625    0.0000 O   0  0  0  0  0  0  0  0  0  0  0  0
   -6.3708   -9.7958    0.0000 O   0  0  0  0  0  0  0  0  0  0  0  0
    6.5375   -9.8833    0.0000 O   0  0  0  0  0  0  0  0  0  0  0  0
   28.0542  -10.0375    0.0000 O   0  0  0  0  0  0  0  0  0  0  0  0
   10.8375   -9.9125    0.0000 O   0  0  0  0  0  0  0  0  0  0  0  0
   23.7500  -10.0083    0.0000 O   0  0  0  0  0  0  0  0  0  0  0  0
   25.9125  -12.0958    0.0000 O   0  0  0  0  0  0  0  0  0  0  0  0
   34.5208  -12.1583    0.0000 O   0  0  0  0  0  0  0  0  0  0  0  0
   19.4458   -9.9833    0.0000 O   0  0  0  0  0  0  0  0  0  0  0  0
   -8.5250  -11.8458    0.0000 O   0  0  0  0  0  0  0  0  0  0  0  0
   17.3042  -12.0333    0.0000 O   0  0  0  0  0  0  0  0  0  0  0  0
   32.3583  -10.0708    0.0000 O   0  0  0  0  0  0  0  0  0  0  0  0
   15.1458   -9.9458    0.0000 O   0  0  0  0  0  0  0  0  0  0  0  0
   -2.0708   -9.8250    0.0000 O   0  0  0  0  0  0  0  0  0  0  0  0
    4.3917  -11.9375    0.0000 O   0  0  0  0  0  0  0  0  0  0  0  0
    0.0917  -11.9083    0.0000 O   0  0  0  0  0  0  0  0  0  0  0  0
   36.6583  -10.1083    0.0000 O   0  0  0  0  0  0  0  0  0  0  0  0
   23.0417  -12.0750    0.0000 C   0  0  0  0  0  0  0  0  0  0  0  0
   35.9542  -12.1667    0.0000 C   0  0  0  0  0  0  0  0  0  0  0  0
   -9.2375   -9.7750    0.0000 C   0  0  0  0  0  0  0  0  0  0  0  0
   -4.9417   -9.8042    0.0000 C   0  0  2  0  0  0  0  0  0  0  0  0
   34.5208   -8.8458    0.0000 O   0  0  0  0  0  0  0  0  0  0  0  0
   25.9125   -8.7833    0.0000 O   0  0  0  0  0  0  0  0  0  0  0  0
    2.2292   -9.8583    0.0000 O   0  0  0  0  0  0  0  0  0  0  0  0
   20.1500  -13.7000    0.0000 O   0  0  0  0  0  0  0  0  0  0  0  0
   18.7375  -12.0417    0.0000 C   0  0  0  0  0  0  0  0  0  0  0  0
    1.5250  -11.0833    0.0000 C   0  0  0  0  0  0  0  0  0  0  0  0
    7.9708   -9.9000    0.0000 C   0  0  0  0  0  0  0  0  0  0  0  0
   29.4875  -10.0500    0.0000 C   0  0  0  0  0  0  0  0  0  0  0  0
   12.2708   -9.9250    0.0000 C   0  0  2  0  0  0  0  0  0  0  0  0
   35.2417  -10.0792    0.0000 N   0  0  0  0  0  0  0  0  0  0  0  0
   19.4458  -12.4542    0.0000 C   0  0  0  0  0  0  0  0  0  0  0  0
   -9.9542  -11.0167    0.0000 N   0  0  0  0  0  0  0  0  0  0  0  0
   37.3875  -11.3417    0.0000 O   0  0  0  0  0  0  0  0  0  0  0  0
   26.6417  -10.0250    0.0000 O   0  0  0  0  0  0  0  0  0  0  0  0
   18.7167  -13.7125    0.0000 O   0  0  0  0  0  0  0  0  0  0  0  0
   -8.5167   -9.3500    0.0000 C   0  0  0  0  0  0  0  0  0  0  0  0
   20.8792   -9.9875    0.0000 C   0  0  0  0  0  0  0  0  0  0  0  0
   -0.6375   -9.8292    0.0000 C   0  0  0  0  0  0  0  0  0  0  0  0
    5.1208   -7.3875    0.0000 N   0  0  0  0  0  0  0  0  0  0  0  0
   11.5500  -14.4792    0.0000 N   0  0  0  0  0  0  0  0  0  0  0  0
    7.2417  -14.4458    0.0000 N   0  0  0  0  0  0  0  0  0  0  0  0
   33.0667  -14.6333    0.0000 N   0  0  0  0  0  0  0  0  0  0  0  0
   28.7625  -14.6042    0.0000 N   0  0  0  0  0  0  0  0  0  0  0  0
   18.0292   -7.4833    0.0000 N   0  0  0  0  0  0  0  0  0  0  0  0
   -4.2167   -9.3833    0.0000 O   0  0  0  0  0  0  0  0  0  0  0  0
    0.0917   -9.4125    0.0000 O   0  0  0  0  0  0  0  0  0  0  0  0
   21.6083   -9.5708    0.0000 O   0  0  0  0  0  0  0  0  0  0  0  0
   36.6583  -12.5792    0.0000 C   0  0  0  0  0  0  0  0  0  0  0  0
   23.7500  -12.4833    0.0000 C   0  0  0  0  0  0  0  0  0  0  0  0
   27.3458  -12.1042    0.0000 C   0  0  0  0  0  0  0  0  0  0  0  0
   10.1333  -11.9792    0.0000 C   0  0  0  0  0  0  0  0  0  0  0  0
   16.5792   -9.9542    0.0000 C   0  0  0  0  0  0  0  0  0  0  0  0
   31.6458  -12.1375    0.0000 C   0  0  0  0  0  0  0  0  0  0  0  0
    5.8250  -11.9500    0.0000 C   0  0  0  0  0  0  0  0  0  0  0  0
    3.6708   -9.8667    0.0000 C   0  0  0  0  0  0  0  0  0  0  0  0
   -2.7792  -11.8875    0.0000 C   0  0  0  0  0  0  0  0  0  0  0  0
   14.4333  -12.0125    0.0000 C   0  0  0  0  0  0  0  0  0  0  0  0
   18.0292   -8.3000    0.0000 C   0  0  0  0  0  0  0  0  0  0  0  0
   33.0667  -13.7958    0.0000 C   0  0  0  0  0  0  0  0  0  0  0  0
    5.1208   -8.2083    0.0000 C   0  0  0  0  0  0  0  0  0  0  0  0
   11.5500  -13.6375    0.0000 C   0  0  0  0  0  0  0  0  0  0  0  0
    7.2417  -13.6083    0.0000 C   0  0  0  0  0  0  0  0  0  0  0  0
   28.7625  -13.7625    0.0000 C   0  0  0  0  0  0  0  0  0  0  0  0
   11.5667   -9.5167    0.0000 C   0  0  0  0  0  0  0  0  0  0  0  0
   -5.6500   -9.3917    0.0000 C   0  0  0  0  0  0  0  0  0  0  0  0
   30.2125   -9.6333    0.0000 C   0  0  0  0  0  0  0  0  0  0  0  0
   28.7792   -9.6417    0.0000 C   0  0  0  0  0  0  0  0  0  0  0  0
    8.6958   -9.4750    0.0000 C   0  0  0  0  0  0  0  0  0  0  0  0
    7.2583   -9.4875    0.0000 C   0  0  0  0  0  0  0  0  0  0  0  0
   13.0000   -9.5083    0.0000 C   0  0  0  0  0  0  0  0  0  0  0  0
   -8.5083   -8.5333    0.0000 C   0  0  0  0  0  0  0  0  0  0  0  0
   -7.8000   -9.7792    0.0000 C   0  0  0  0  0  0  0  0  0  0  0  0
   32.3583  -12.5500    0.0000 C   0  0  0  0  0  0  0  0  0  0  0  0
   28.0542  -12.5167    0.0000 C   0  0  0  0  0  0  0  0  0  0  0  0
    6.5375  -12.3583    0.0000 C   0  0  0  0  0  0  0  0  0  0  0  0
   10.8375  -12.3917    0.0000 C   0  0  0  0  0  0  0  0  0  0  0  0
    4.3917   -9.4458    0.0000 C   0  0  0  0  0  0  0  0  0  0  0  0
   17.3042   -9.5375    0.0000 C   0  0  0  0  0  0  0  0  0  0  0  0
   32.3583  -13.3875    0.0000 C   0  0  0  0  0  0  0  0  0  0  0  0
    6.5375  -13.2000    0.0000 C   0  0  0  0  0  0  0  0  0  0  0  0
    4.3917   -8.6250    0.0000 C   0  0  0  0  0  0  0  0  0  0  0  0
   17.3042   -8.7208    0.0000 C   0  0  0  0  0  0  0  0  0  0  0  0
   10.8375  -13.2292    0.0000 C   0  0  0  0  0  0  0  0  0  0  0  0
   28.0542  -13.3500    0.0000 C   0  0  0  0  0  0  0  0  0  0  0  0
   23.7500  -13.3250    0.0000 C   0  0  0  0  0  0  0  0  0  0  0  0
   36.6583  -13.4208    0.0000 C   0  0  0  0  0  0  0  0  0  0  0  0
   37.3667  -12.1667    0.0000 C   0  0  0  0  0  0  0  0  0  0  0  0
   24.4583  -12.0750    0.0000 C   0  0  0  0  0  0  0  0  0  0  0  0
   11.5667   -8.6792    0.0000 C   0  0  0  0  0  0  0  0  0  0  0  0
   -7.7833   -8.1292    0.0000 C   0  0  0  0  0  0  0  0  0  0  0  0
   -7.0833   -9.3708    0.0000 C   0  0  0  0  0  0  0  0  0  0  0  0
   -7.0708   -8.5458    0.0000 C   0  0  0  0  0  0  0  0  0  0  0  0
  1  2  1  0  0  0  0
  1  3  1  1  0  0  0
 34  4  1  0  0  0  0
 36  5  1  0  0  0  0
 35  6  1  0  0  0  0
  7 14  1  0  0  0  0
  8 12  1  0  0  0  0
  9 13  1  0  0  0  0
 10  3  1  0  0  0  0
 27 11  1  0  0  0  0
 68 12  1  0  0  0  0
 64 13  1  0  0  0  0
 67 14  1  0  0  0  0
 42 15  1  0  0  0  0
 41 16  1  0  0  0  0
 51 17  1  0  0  0  0
 57 18  1  0  0  0  0
 65 19  1  0  0  0  0
 69 20  1  0  0  0  0
 66 21  1  0  0  0  0
 70 22  1  0  0  0  0
 23 33  1  0  0  0  0
 72 24  1  0  0  0  0
 25 18  1  0  0  0  0
 26 19  1  0  0  0  0
 27 25  1  1  0  0  0
 28 17  1  0  0  0  0
 29 20  1  0  0  0  0
 30 11  1  0  0  0  0
 31  2  1  0  0  0  0
 32 26  1  1  0  0  0
 48 33  1  6  0  0  0
 34  7  1  1  0  0  0
 35  8  1  1  0  0  0
 36  9  1  1  0  0  0
 37 15  1  0  0  0  0
 38  5  1  0  0  0  0
 39  4  1  0  0  0  0
 40  6  1  0  0  0  0
 41 28  1  1  0  0  0
 42 29  1  1  0  0  0
 43 22  1  0  0  0  0
 44 16  1  0  0  0  0
 45 24  1  0  0  0  0
 46 21  1  0  0  0  0
 32 47  1  0  0  0  0
 48 10  1  0  0  0  0
 42 49  1  0  0  0  0
 41 50  1  0  0  0  0
 51 30  1  6  0  0  0
 52 75  1  0  0  0  0
 53 37  1  6  0  0  0
 53 54  1  0  0  0  0
 55 58  1  0  0  0  0
 56 62  1  0  0  0  0
 57 43  1  6  0  0  0
 48 58  1  0  0  0  0
 59 49  1  0  0  0  0
 60 50  1  0  0  0  0
 61 55  1  0  0  0  0
 62106  1  0  0  0  0
 63 47  1  0  0  0  0
 64 39  1  6  0  0  0
 65 31  1  0  0  0  0
 66 38  1  0  0  0  0
 67 45  1  6  0  0  0
 68 44  1  6  0  0  0
 69 40  1  6  0  0  0
 70 46  1  1  0  0  0
 71 61  1  0  0  0  0
 72 56  1  1  0  0  0
 73 23  1  0  0  0  0
 74111  1  0  0  0  0
 75 55  2  0  0  0  0
 76  2  2  0  0  0  0
 77  5  2  0  0  0  0
 78  4  2  0  0  0  0
 79  6  2  0  0  0  0
 80 11  2  0  0  0  0
 81 10  2  0  0  0  0
 82 14  2  0  0  0  0
 83 12  2  0  0  0  0
 84 13  2  0  0  0  0
 85 17  2  0  0  0  0
 86 16  2  0  0  0  0
 87 15  2  0  0  0  0
 88 18  2  0  0  0  0
 89 23  2  0  0  0  0
 90 22  2  0  0  0  0
 91 20  2  0  0  0  0
 92 21  2  0  0  0  0
 93 19  2  0  0  0  0
 94 24  2  0  0  0  0
 95 47  2  0  0  0  0
 96 54  2  0  0  0  0
 51 97  1  0  0  0  0
 53 98  1  0  0  0  0
 73 99  1  0  0  0  0
  1100  1  0  0  0  0
101 59  2  0  0  0  0
102 60  2  0  0  0  0
103 62  2  0  0  0  0
104 74  2  0  0  0  0
 57105  1  0  0  0  0
106 63  1  0  0  0  0
 34107  1  0  0  0  0
 35108  1  0  0  0  0
 36109  1  0  0  0  0
110 59  1  0  0  0  0
111105  1  0  0  0  0
 73112  1  1  0  0  0
113 54  1  0  0  0  0
114 60  1  0  0  0  0
115 74  1  0  0  0  0
116 99  1  0  0  0  0
 27117  1  0  0  0  0
 32118  1  0  0  0  0
119140  1  0  0  0  0
120141  1  0  0  0  0
121142  1  0  0  0  0
122139  1  0  0  0  0
123143  1  0  0  0  0
124138  1  0  0  0  0
100125  1  1  0  0  0
126118  1  0  0  0  0
127117  1  0  0  0  0
128 98  1  0  0  0  0
129 97  1  0  0  0  0
 68130  1  0  0  0  0
 64131  1  0  0  0  0
 70132  1  0  0  0  0
 69133  1  0  0  0  0
 67134  1  0  0  0  0
 72135  1  0  0  0  0
 65136  1  6  0  0  0
 66137  1  6  0  0  0
138162  1  0  0  0  0
139159  1  0  0  0  0
140161  1  0  0  0  0
141163  1  0  0  0  0
142160  1  0  0  0  0
143164  1  0  0  0  0
109144  1  0  0  0  0
100145  1  0  0  0  0
146108  1  0  0  0  0
147108  1  0  0  0  0
148107  1  0  0  0  0
149107  1  0  0  0  0
109150  1  6  0  0  0
151116  2  0  0  0  0
152116  1  0  0  0  0
153133  1  0  0  0  0
154130  1  0  0  0  0
155134  1  0  0  0  0
156131  1  0  0  0  0
157135  1  0  0  0  0
158132  1  0  0  0  0
159153  1  0  0  0  0
160155  1  0  0  0  0
161157  1  0  0  0  0
162158  1  0  0  0  0
163156  1  0  0  0  0
164154  1  0  0  0  0
165129  1  0  0  0  0
166128  1  0  0  0  0
167128  1  0  0  0  0
168129  1  0  0  0  0
169144  1  0  0  0  0
170151  1  0  0  0  0
171152  2  0  0  0  0
172171  1  0  0  0  0
 52 71  2  0  0  0  0
170172  2  0  0  0  0
M  END
> <From>
www.bindingDB.org

> <BindingDB Reactant_set_id>
51016952

> <Ligand InChI>
InChI=1S/C110H189N31O31/c1-14-61(10)88(140-100(161)73(37-23-29-45-116)130-107(168)87(60(8)9)138-98(159)71(35-21-27-43-114)126-94(155)68(32-18-24-40-111)124-83(146)53-120-93(154)80(54-142)136-91(152)63(12)123-109(170)89(64(13)144)141-104(165)76(49-66-52-119-56-121-66)131-92(153)67(117)48-65-30-16-15-17-31-65)108(169)122-62(11)90(151)125-69(33-19-25-41-112)95(156)128-74(38-39-84(147)148)97(158)137-81(55-143)105(166)132-75(46-57(2)3)101(162)134-78(51-85(149)150)103(164)127-72(36-22-28-44-115)99(160)139-86(59(6)7)106(167)129-70(34-20-26-42-113)96(157)133-77(50-82(118)145)102(163)135-79(110(171)172)47-58(4)5/h15-17,30-31,52,56-64,67-81,86-89,142-144H,14,18-29,32-51,53-55,111-117H2,1-13H3,(H2,118,145)(H,119,121)(H,120,154)(H,122,169)(H,123,170)(H,124,146)(H,125,151)(H,126,155)(H,127,164)(H,128,156)(H,129,167)(H,130,168)(H,131,153)(H,132,166)(H,133,157)(H,134,162)(H,135,163)(H,136,152)(H,137,158)(H,138,159)(H,139,160)(H,140,161)(H,141,165)(H,147,148)(H,149,150)(H,171,172)/t61-,62-,63-,64+,67-,68-,69-,70-,71-,72-,73-,74-,75-,76-,77-,78-,79-,80-,81-,86-,87-,88-,89-/m0/s1

> <Ligand InChI Key>
FKBWZKHROQMQSE-HHOBEPOFSA-N

> <BindingDB MonomerID>
50416565

> <BindingDB Ligand Name>
CHEMBL1215814

> <Target Name>
DNA repair protein RAD51 homolog 1

> <Target Source Organism According to Curator or DataSource>
Homo sapiens

> <Ki (nM)>


> <IC50 (nM)>
>40000

> <Kd (nM)>


> <EC50 (nM)>


> <kon (M-1-s-1)>


> <koff (s-1)>


> <pH>


> <Temp C>


> <Curation/DataSource>
ChEMBL

> <Article DOI>
10.1021/jm1002974

> <BindingDB Entry DOI>
10.7270/Q2NG4RV5

> <PMID>
20684611

> <PubChem AID>


> <Patent Number>


> <Authors>
Nomme, J; Renodon-Corniere, A; Asanomi, Y; Sakaguchi, K; Stasiak, AZ; Stasiak, A; Norden, B; Tran, V; Takahashi, M

> <Date of publication>
8/5/2010

> <Date in BindingDB>
5/22/2013

> <Institution>
Centre National de la Recherche Scientifique & Universite de Nantes

> <Link to Ligand in BindingDB>
http://www.bindingdb.org/bind/chemsearch/marvin/MolStructure.jsp?monomerid=50416565

> <Link to Ligand-Target Pair in BindingDB>
http://www.bindingdb.org/jsp/dbsearch/PrimarySearch_ki.jsp?energyterm=kJ/mole&tag=pol&polymerid=4676&target=DNA+repair+protein+RAD51+homolog+1&column=ki&startPg=0&Increment=50&submit=Search

> <Link to Ligand-Target Pair in BindingDB>
http://www.bindingdb.org/jsp/dbsearch/PrimarySearch_ki.jsp?energyterm=kJ/mole&tag=r21&monomerid=50416565&enzyme=DNA+repair+protein+RAD51+homolog+1&column=ki&startPg=0&Increment=50&submit=Search

> <Ligand HET ID in PDB>


> <PDB ID(s) for Ligand-Target Complex>


> <PubChem CID of Ligand>
49864243

> <PubChem SID of Ligand>
163365589

> <ChEBI ID of Ligand>


> <ChEMBL ID of Ligand>
CHEMBL1215814

> <DrugBank ID of Ligand>


> <IUPHAR_GRAC ID of Ligand>


> <KEGG ID of Ligand>


> <ZINC ID of Ligand>


> <Number of Protein Chains in Target (bigger than 1 implies a multichain complex)>
1

> <BindingDB Target Chain Sequence>
MAMQMQLEANADTSVEEESFGPQPISRLEQCGINANDVKKLEEAGFHTVEAVAYAPKKELINIKGISEAKADKILAEAAKLVPMGFTTATEFHQRRSEIIQITTGSKELDKLLQGGIETGSITEMFGEFRTGKTQICHTLAVTCQLPIDRGGGEGKAMYIDTEGTFRPERLLAVAERYGLSGSDVLDNVAYARAFNTDHQTQLLYQASAMMVESRYALLIVDSATALYRTDYSGRGELSARQMHLARFLRMLLRLADEFGVAVVITNQVVAQVDGAAMFAADPKKPIGGNIIAHASTTRLYLRKGRGETRICKIYDSPCLPEAEAMFAINADGVGDAKD

> <PDB ID(s) of Target Chain>
1N0W,5JZC,5NP7,5NWL,8BQ2,8BR2,8BSC

> <UniProt (SwissProt) Recommended Name of Target Chain>
DNA repair protein RAD51 homolog 1

> <UniProt (SwissProt) Entry Name of Target Chain>
RAD51_HUMAN

> <UniProt (SwissProt) Primary ID of Target Chain>
Q06609

> <UniProt (SwissProt) Secondary ID(s) of Target Chain>
B0FXP0 B2R8T6 Q6FHX9 Q6ZNA8 Q9BV60

> <UniProt (SwissProt) Alternative ID(s) of Target Chain>


> <UniProt (TrEMBL) Submitted Name of Target Chain>


> <UniProt (TrEMBL) Entry Name of Target Chain>


> <UniProt (TrEMBL) Primary ID of Target Chain>


> <UniProt (TrEMBL) Secondary ID(s) of Target Chain>


> <UniProt (TrEMBL) Alternative ID(s) of Target Chain>


$$$$

  Mrv0541 11241415252D          

187189  0  0  0  0            999 V2000
  -10.9324   -2.8113    0.0000 C   0  0  1  0  0  0  0  0  0  0  0  0
  -10.2109   -3.1992    0.0000 C   0  0  0  0  0  0  0  0  0  0  0  0
  -11.6416   -3.2493    0.0000 N   0  0  0  0  0  0  0  0  0  0  0  0
    2.6653   -2.7404    0.0000 C   0  0  0  0  0  0  0  0  0  0  0  0
    6.9616   -2.5819    0.0000 C   0  0  0  0  0  0  0  0  0  0  0  0
   24.1340   -1.9729    0.0000 C   0  0  0  0  0  0  0  0  0  0  0  0
    1.2346   -2.7863    0.0000 N   0  0  0  0  0  0  0  0  0  0  0  0
   22.7034   -2.0230    0.0000 N   0  0  0  0  0  0  0  0  0  0  0  0
    5.5267   -2.6361    0.0000 N   0  0  0  0  0  0  0  0  0  0  0  0
  -12.3632   -2.8613    0.0000 C   0  0  0  0  0  0  0  0  0  0  0  0
   15.5458   -2.2774    0.0000 C   0  0  0  0  0  0  0  0  0  0  0  0
   21.9859   -1.6392    0.0000 C   0  0  0  0  0  0  0  0  0  0  0  0
    4.8093   -2.2482    0.0000 C   0  0  0  0  0  0  0  0  0  0  0  0
    0.5130   -2.3984    0.0000 C   0  0  0  0  0  0  0  0  0  0  0  0
   28.4303   -1.8227    0.0000 C   0  0  0  0  0  0  0  0  0  0  0  0
   19.8419   -2.1273    0.0000 C   0  0  0  0  0  0  0  0  0  0  0  0
   17.6896   -1.7852    0.0000 C   0  0  0  0  0  0  0  0  0  0  0  0
   30.5700   -1.3306    0.0000 C   0  0  0  0  0  0  0  0  0  0  0  0
  -14.5029   -3.3494    0.0000 C   0  0  0  0  0  0  0  0  0  0  0  0
   13.3976   -1.9438    0.0000 C   0  0  0  0  0  0  0  0  0  0  0  0
   -8.0711   -2.7071    0.0000 C   0  0  0  0  0  0  0  0  0  0  0  0
   26.2780   -1.4849    0.0000 C   0  0  0  0  0  0  0  0  0  0  0  0
    9.1014   -2.0980    0.0000 C   0  0  0  0  0  0  0  0  0  0  0  0
   11.2578   -2.4318    0.0000 C   0  0  0  0  0  0  0  0  0  0  0  0
   -1.6267   -2.8906    0.0000 C   0  0  0  0  0  0  0  0  0  0  0  0
   14.1150   -2.3317    0.0000 N   0  0  0  0  0  0  0  0  0  0  0  0
   -7.3536   -3.0950    0.0000 N   0  0  0  0  0  0  0  0  0  0  0  0
   14.8283   -1.8895    0.0000 C   0  0  1  0  0  0  0  0  0  0  0  0
   18.4113   -2.1773    0.0000 N   0  0  0  0  0  0  0  0  0  0  0  0
   16.2590   -1.8395    0.0000 N   0  0  0  0  0  0  0  0  0  0  0  0
   26.9954   -1.8728    0.0000 N   0  0  0  0  0  0  0  0  0  0  0  0
  -13.7939   -2.9073    0.0000 N   0  0  0  0  0  0  0  0  0  0  0  0
   -9.4976   -2.7571    0.0000 N   0  0  0  0  0  0  0  0  0  0  0  0
   -6.6446   -2.6528    0.0000 C   0  0  2  0  0  0  0  0  0  0  0  0
   29.1393   -1.3807    0.0000 N   0  0  0  0  0  0  0  0  0  0  0  0
    1.9479   -2.3525    0.0000 C   0  0  1  0  0  0  0  0  0  0  0  0
   23.4166   -1.5850    0.0000 C   0  0  1  0  0  0  0  0  0  0  0  0
    6.2441   -2.1940    0.0000 C   0  0  1  0  0  0  0  0  0  0  0  0
   31.2916   -1.7185    0.0000 N   0  0  0  0  0  0  0  0  0  0  0  0
    7.6707   -2.1440    0.0000 N   0  0  0  0  0  0  0  0  0  0  0  0
    3.3786   -2.3025    0.0000 N   0  0  0  0  0  0  0  0  0  0  0  0
   24.8515   -1.5349    0.0000 N   0  0  0  0  0  0  0  0  0  0  0  0
   19.1204   -1.7394    0.0000 C   0  0  1  0  0  0  0  0  0  0  0  0
   27.7087   -1.4348    0.0000 C   0  0  1  0  0  0  0  0  0  0  0  0
   11.9669   -1.9938    0.0000 N   0  0  0  0  0  0  0  0  0  0  0  0
   20.5552   -1.6893    0.0000 N   0  0  0  0  0  0  0  0  0  0  0  0
   -0.9135   -2.4484    0.0000 N   0  0  0  0  0  0  0  0  0  0  0  0
    9.8230   -2.4859    0.0000 N   0  0  0  0  0  0  0  0  0  0  0  0
   -5.9230   -3.0407    0.0000 C   0  0  0  0  0  0  0  0  0  0  0  0
  -13.0722   -3.2952    0.0000 C   0  0  1  0  0  0  0  0  0  0  0  0
   27.6837   -0.5964    0.0000 C   0  0  0  0  0  0  0  0  0  0  0  0
   19.0995   -0.9052    0.0000 C   0  0  0  0  0  0  0  0  0  0  0  0
   16.9764   -2.2274    0.0000 C   0  0  1  0  0  0  0  0  0  0  0  0
   29.8568   -1.7686    0.0000 C   0  0  1  0  0  0  0  0  0  0  0  0
  -11.0868   -4.9970    0.0000 N   0  0  0  0  0  0  0  0  0  0  0  0
  -15.2287   -2.9573    0.0000 C   0  0  1  0  0  0  0  0  0  0  0  0
   32.0049   -1.2806    0.0000 C   0  0  2  0  0  0  0  0  0  0  0  0
   32.7223   -1.6643    0.0000 C   0  0  0  0  0  0  0  0  0  0  0  0
  -15.9337   -3.3911    0.0000 N   0  0  0  0  0  0  0  0  0  0  0  0
  -12.3131   -4.5131    0.0000 C   0  0  0  0  0  0  0  0  0  0  0  0
   -3.0616   -2.9448    0.0000 N   0  0  0  0  0  0  0  0  0  0  0  0
   12.6843   -2.3817    0.0000 C   0  0  1  0  0  0  0  0  0  0  0  0
  -13.0514   -4.1169    0.0000 C   0  0  0  0  0  0  0  0  0  0  0  0
   28.3802   -0.1669    0.0000 C   0  0  0  0  0  0  0  0  0  0  0  0
  -12.3674   -5.3890    0.0000 N   0  0  0  0  0  0  0  0  0  0  0  0
   19.7919   -0.4713    0.0000 C   0  0  0  0  0  0  0  0  0  0  0  0
   -3.7790   -2.5569    0.0000 C   0  0  0  0  0  0  0  0  0  0  0  0
   -5.2097   -2.6070    0.0000 N   0  0  0  0  0  0  0  0  0  0  0  0
    4.0961   -2.6904    0.0000 C   0  0  1  0  0  0  0  0  0  0  0  0
    8.3881   -2.5319    0.0000 C   0  0  1  0  0  0  0  0  0  0  0  0
   -8.7801   -3.1450    0.0000 C   0  0  1  0  0  0  0  0  0  0  0  0
   21.2726   -2.0772    0.0000 C   0  0  1  0  0  0  0  0  0  0  0  0
   -0.1919   -2.8363    0.0000 C   0  0  1  0  0  0  0  0  0  0  0  0
   25.5689   -1.9228    0.0000 C   0  0  1  0  0  0  0  0  0  0  0  0
   10.5320   -2.0397    0.0000 C   0  0  1  0  0  0  0  0  0  0  0  0
  -11.5831   -5.6560    0.0000 C   0  0  0  0  0  0  0  0  0  0  0  0
  -16.6552   -2.9990    0.0000 C   0  0  0  0  0  0  0  0  0  0  0  0
   -2.3483   -2.5027    0.0000 C   0  0  1  0  0  0  0  0  0  0  0  0
   13.4643   -4.4130    0.0000 C   0  0  0  0  0  0  0  0  0  0  0  0
  -11.5665   -4.3254    0.0000 C   0  0  0  0  0  0  0  0  0  0  0  0
  -10.1900   -4.0126    0.0000 O   0  0  0  0  0  0  0  0  0  0  0  0
    6.9824   -3.4036    0.0000 O   0  0  0  0  0  0  0  0  0  0  0  0
    2.6904   -3.5580    0.0000 O   0  0  0  0  0  0  0  0  0  0  0  0
   24.1590   -2.7905    0.0000 O   0  0  0  0  0  0  0  0  0  0  0  0
   15.5708   -3.0950    0.0000 O   0  0  0  0  0  0  0  0  0  0  0  0
  -12.3840   -2.0230    0.0000 O   0  0  0  0  0  0  0  0  0  0  0  0
    0.4922   -1.5642    0.0000 O   0  0  0  0  0  0  0  0  0  0  0  0
   21.9609   -0.8009    0.0000 O   0  0  0  0  0  0  0  0  0  0  0  0
    4.7843   -1.4098    0.0000 O   0  0  0  0  0  0  0  0  0  0  0  0
   30.5450   -0.4922    0.0000 O   0  0  0  0  0  0  0  0  0  0  0  0
   19.8628   -2.9448    0.0000 O   0  0  0  0  0  0  0  0  0  0  0  0
   17.6646   -0.9552    0.0000 O   0  0  0  0  0  0  0  0  0  0  0  0
   28.4553   -2.6361    0.0000 O   0  0  0  0  0  0  0  0  0  0  0  0
  -14.4779   -4.1669    0.0000 O   0  0  0  0  0  0  0  0  0  0  0  0
    9.0805   -1.2555    0.0000 O   0  0  0  0  0  0  0  0  0  0  0  0
   13.3725   -1.1054    0.0000 O   0  0  0  0  0  0  0  0  0  0  0  0
   11.2787   -3.2493    0.0000 O   0  0  0  0  0  0  0  0  0  0  0  0
   26.2529   -0.6507    0.0000 O   0  0  0  0  0  0  0  0  0  0  0  0
   -1.6059   -3.7081    0.0000 O   0  0  0  0  0  0  0  0  0  0  0  0
   -8.0919   -1.8687    0.0000 O   0  0  0  0  0  0  0  0  0  0  0  0
  -15.2495   -2.1231    0.0000 C   0  0  0  0  0  0  0  0  0  0  0  0
   31.9798   -0.4422    0.0000 C   0  0  0  0  0  0  0  0  0  0  0  0
   -5.8980   -3.8583    0.0000 O   0  0  0  0  0  0  0  0  0  0  0  0
   32.7474   -2.4859    0.0000 O   0  0  0  0  0  0  0  0  0  0  0  0
   29.8860   -2.5903    0.0000 C   0  0  0  0  0  0  0  0  0  0  0  0
   17.0056   -3.0449    0.0000 C   0  0  0  0  0  0  0  0  0  0  0  0
  -10.9534   -1.9729    0.0000 C   0  0  2  0  0  0  0  0  0  0  0  0
   29.1018   -0.5548    0.0000 O   0  0  0  0  0  0  0  0  0  0  0  0
   20.5135   -0.8634    0.0000 O   0  0  0  0  0  0  0  0  0  0  0  0
   -3.7998   -1.7185    0.0000 O   0  0  0  0  0  0  0  0  0  0  0  0
  -16.6845   -2.1773    0.0000 O   0  0  0  0  0  0  0  0  0  0  0  0
   14.2026   -4.8093    0.0000 O   0  0  0  0  0  0  0  0  0  0  0  0
   12.7093   -3.1992    0.0000 C   0  0  0  0  0  0  0  0  0  0  0  0
   -4.4881   -2.9949    0.0000 C   0  0  0  0  0  0  0  0  0  0  0  0
   23.3916   -0.7466    0.0000 C   0  0  0  0  0  0  0  0  0  0  0  0
    1.9187   -1.5141    0.0000 C   0  0  0  0  0  0  0  0  0  0  0  0
    6.2149   -1.3597    0.0000 C   0  0  2  0  0  0  0  0  0  0  0  0
   28.3594    0.6674    0.0000 N   0  0  0  0  0  0  0  0  0  0  0  0
   13.4435   -3.5955    0.0000 C   0  0  0  0  0  0  0  0  0  0  0  0
   33.4356   -1.2305    0.0000 O   0  0  0  0  0  0  0  0  0  0  0  0
   19.7710    0.3629    0.0000 O   0  0  0  0  0  0  0  0  0  0  0  0
   12.7719   -4.8385    0.0000 O   0  0  0  0  0  0  0  0  0  0  0  0
   32.6765   -0.0125    0.0000 C   0  0  0  0  0  0  0  0  0  0  0  0
  -14.5530   -1.6976    0.0000 C   0  0  0  0  0  0  0  0  0  0  0  0
   14.8033   -1.0553    0.0000 C   0  0  0  0  0  0  0  0  0  0  0  0
   -6.6696   -1.8227    0.0000 C   0  0  0  0  0  0  0  0  0  0  0  0
  -18.0901   -3.0490    0.0000 N   0  0  0  0  0  0  0  0  0  0  0  0
   -1.0303    0.8634    0.0000 N   0  0  0  0  0  0  0  0  0  0  0  0
    5.6393   -5.9313    0.0000 N   0  0  0  0  0  0  0  0  0  0  0  0
    1.3472   -6.0857    0.0000 N   0  0  0  0  0  0  0  0  0  0  0  0
   27.1081   -5.1680    0.0000 N   0  0  0  0  0  0  0  0  0  0  0  0
   22.8160   -5.3182    0.0000 N   0  0  0  0  0  0  0  0  0  0  0  0
   11.8543    1.3181    0.0000 N   0  0  0  0  0  0  0  0  0  0  0  0
  -10.2567   -1.5433    0.0000 O   0  0  0  0  0  0  0  0  0  0  0  0
  -17.3685   -3.4370    0.0000 C   0  0  0  0  0  0  0  0  0  0  0  0
   -7.3996   -1.4223    0.0000 O   0  0  0  0  0  0  0  0  0  0  0  0
   14.0692   -0.6590    0.0000 O   0  0  0  0  0  0  0  0  0  0  0  0
   30.6201   -2.9865    0.0000 C   0  0  0  0  0  0  0  0  0  0  0  0
   17.7397   -3.4412    0.0000 C   0  0  0  0  0  0  0  0  0  0  0  0
    4.1252   -3.5037    0.0000 C   0  0  0  0  0  0  0  0  0  0  0  0
   10.5112   -1.2096    0.0000 C   0  0  0  0  0  0  0  0  0  0  0  0
   25.5897   -2.7362    0.0000 C   0  0  0  0  0  0  0  0  0  0  0  0
   -0.1710   -3.6581    0.0000 C   0  0  0  0  0  0  0  0  0  0  0  0
   21.2977   -2.8906    0.0000 C   0  0  0  0  0  0  0  0  0  0  0  0
   -2.3733   -1.6643    0.0000 C   0  0  0  0  0  0  0  0  0  0  0  0
   -8.7551   -3.9625    0.0000 C   0  0  0  0  0  0  0  0  0  0  0  0
    8.4132   -3.3494    0.0000 C   0  0  0  0  0  0  0  0  0  0  0  0
   11.8751    0.4880    0.0000 C   0  0  0  0  0  0  0  0  0  0  0  0
   27.0871   -4.3504    0.0000 C   0  0  0  0  0  0  0  0  0  0  0  0
   -1.0053    0.0250    0.0000 C   0  0  0  0  0  0  0  0  0  0  0  0
    5.6185   -5.1137    0.0000 C   0  0  0  0  0  0  0  0  0  0  0  0
    1.3222   -5.2681    0.0000 C   0  0  0  0  0  0  0  0  0  0  0  0
   22.7910   -4.5006    0.0000 C   0  0  0  0  0  0  0  0  0  0  0  0
    5.4808   -0.9635    0.0000 C   0  0  0  0  0  0  0  0  0  0  0  0
  -11.6874   -1.5767    0.0000 C   0  0  0  0  0  0  0  0  0  0  0  0
    1.1846   -1.1179    0.0000 C   0  0  0  0  0  0  0  0  0  0  0  0
    2.6153   -1.0845    0.0000 C   0  0  0  0  0  0  0  0  0  0  0  0
   22.6574   -0.3504    0.0000 C   0  0  0  0  0  0  0  0  0  0  0  0
   24.0839   -0.3211    0.0000 C   0  0  0  0  0  0  0  0  0  0  0  0
    6.9116   -0.9302    0.0000 C   0  0  0  0  0  0  0  0  0  0  0  0
   33.4064   -0.4004    0.0000 C   0  0  0  0  0  0  0  0  0  0  0  0
  -13.8230   -2.0772    0.0000 C   0  0  0  0  0  0  0  0  0  0  0  0
   32.6389    0.8051    0.0000 C   0  0  0  0  0  0  0  0  0  0  0  0
  -14.5863   -0.8717    0.0000 C   0  0  0  0  0  0  0  0  0  0  0  0
    0.5631   -4.0543    0.0000 C   0  0  0  0  0  0  0  0  0  0  0  0
    4.8594   -3.9000    0.0000 C   0  0  0  0  0  0  0  0  0  0  0  0
   -1.6768   -1.2388    0.0000 C   0  0  0  0  0  0  0  0  0  0  0  0
   11.2077   -0.7800    0.0000 C   0  0  0  0  0  0  0  0  0  0  0  0
   26.3280   -3.1366    0.0000 C   0  0  0  0  0  0  0  0  0  0  0  0
   22.0318   -3.2868    0.0000 C   0  0  0  0  0  0  0  0  0  0  0  0
   -1.6976   -0.4004    0.0000 C   0  0  0  0  0  0  0  0  0  0  0  0
   11.1786    0.0584    0.0000 C   0  0  0  0  0  0  0  0  0  0  0  0
    4.8802   -4.7175    0.0000 C   0  0  0  0  0  0  0  0  0  0  0  0
   22.0568   -4.1044    0.0000 C   0  0  0  0  0  0  0  0  0  0  0  0
   26.3489   -3.9542    0.0000 C   0  0  0  0  0  0  0  0  0  0  0  0
    0.5881   -4.8719    0.0000 C   0  0  0  0  0  0  0  0  0  0  0  0
   17.7606   -4.2628    0.0000 C   0  0  0  0  0  0  0  0  0  0  0  0
   30.6451   -3.8040    0.0000 C   0  0  0  0  0  0  0  0  0  0  0  0
   31.3292   -2.5444    0.0000 C   0  0  0  0  0  0  0  0  0  0  0  0
   18.4529   -3.0032    0.0000 C   0  0  0  0  0  0  0  0  0  0  0  0
    5.4600   -0.1460    0.0000 C   0  0  0  0  0  0  0  0  0  0  0  0
  -13.1265   -1.6350    0.0000 C   0  0  0  0  0  0  0  0  0  0  0  0
   33.3397    1.2513    0.0000 C   0  0  0  0  0  0  0  0  0  0  0  0
   34.1030    0.0458    0.0000 C   0  0  0  0  0  0  0  0  0  0  0  0
  -13.8898   -0.4297    0.0000 C   0  0  0  0  0  0  0  0  0  0  0  0
  -13.1598   -0.8134    0.0000 C   0  0  0  0  0  0  0  0  0  0  0  0
   34.0696    0.8676    0.0000 C   0  0  0  0  0  0  0  0  0  0  0  0
  1  2  1  0  0  0  0
  1  3  1  1  0  0  0
 36  4  1  0  0  0  0
 38  5  1  0  0  0  0
 37  6  1  0  0  0  0
  7 14  1  0  0  0  0
  8 12  1  0  0  0  0
  9 13  1  0  0  0  0
 10  3  1  0  0  0  0
 28 11  1  0  0  0  0
 72 12  1  0  0  0  0
 69 13  1  0  0  0  0
 73 14  1  0  0  0  0
 44 15  1  0  0  0  0
 43 16  1  0  0  0  0
 53 17  1  0  0  0  0
 54 18  1  0  0  0  0
 19 32  1  0  0  0  0
 62 20  1  0  0  0  0
 71 21  1  0  0  0  0
 74 22  1  0  0  0  0
 70 23  1  0  0  0  0
 75 24  1  0  0  0  0
 78 25  1  0  0  0  0
 26 20  1  0  0  0  0
 27 21  1  0  0  0  0
 28 26  1  1  0  0  0
 29 17  1  0  0  0  0
 30 11  1  0  0  0  0
 31 22  1  0  0  0  0
 50 32  1  6  0  0  0
 33  2  1  0  0  0  0
 34 27  1  1  0  0  0
 35 15  1  0  0  0  0
 36  7  1  1  0  0  0
 37  8  1  1  0  0  0
 38  9  1  1  0  0  0
 39 18  1  0  0  0  0
 40  5  1  0  0  0  0
 41  4  1  0  0  0  0
 42  6  1  0  0  0  0
 43 29  1  1  0  0  0
 44 31  1  1  0  0  0
 45 24  1  0  0  0  0
 46 16  1  0  0  0  0
 47 25  1  0  0  0  0
 48 23  1  0  0  0  0
 34 49  1  0  0  0  0
 50 10  1  0  0  0  0
 44 51  1  0  0  0  0
 43 52  1  0  0  0  0
 53 30  1  6  0  0  0
 54 35  1  6  0  0  0
 55 80  1  0  0  0  0
 56 19  1  0  0  0  0
 57 39  1  1  0  0  0
 57 58  1  0  0  0  0
 56 59  1  1  0  0  0
 60 63  1  0  0  0  0
 61 67  1  0  0  0  0
 62 45  1  6  0  0  0
 50 63  1  0  0  0  0
 64 51  1  0  0  0  0
 65 60  1  0  0  0  0
 66 52  1  0  0  0  0
 67114  1  0  0  0  0
 68 49  1  0  0  0  0
 69 41  1  6  0  0  0
 70 40  1  0  0  0  0
 71 33  1  0  0  0  0
 72 46  1  6  0  0  0
 73 47  1  6  0  0  0
 74 42  1  6  0  0  0
 75 48  1  1  0  0  0
 76 65  1  0  0  0  0
 77 59  1  0  0  0  0
 78 61  1  1  0  0  0
 79119  1  0  0  0  0
 80 60  2  0  0  0  0
 81  2  2  0  0  0  0
 82  5  2  0  0  0  0
 83  4  2  0  0  0  0
 84  6  2  0  0  0  0
 85 11  2  0  0  0  0
 86 10  2  0  0  0  0
 87 14  2  0  0  0  0
 88 12  2  0  0  0  0
 89 13  2  0  0  0  0
 90 18  2  0  0  0  0
 91 16  2  0  0  0  0
 92 17  2  0  0  0  0
 93 15  2  0  0  0  0
 94 19  2  0  0  0  0
 95 23  2  0  0  0  0
 96 20  2  0  0  0  0
 97 24  2  0  0  0  0
 98 22  2  0  0  0  0
 99 25  2  0  0  0  0
100 21  2  0  0  0  0
 56101  1  0  0  0  0
 57102  1  0  0  0  0
103 49  2  0  0  0  0
104 58  2  0  0  0  0
 54105  1  0  0  0  0
 53106  1  0  0  0  0
  1107  1  0  0  0  0
108 64  2  0  0  0  0
109 66  2  0  0  0  0
110 67  2  0  0  0  0
111 77  2  0  0  0  0
112 79  2  0  0  0  0
 62113  1  0  0  0  0
114 68  1  0  0  0  0
 37115  1  0  0  0  0
 36116  1  0  0  0  0
 38117  1  0  0  0  0
118 64  1  0  0  0  0
119113  1  0  0  0  0
120 58  1  0  0  0  0
121 66  1  0  0  0  0
122 79  1  0  0  0  0
123102  1  0  0  0  0
124101  1  0  0  0  0
 28125  1  0  0  0  0
 34126  1  0  0  0  0
127135  1  0  0  0  0
128150  1  0  0  0  0
129151  1  0  0  0  0
130152  1  0  0  0  0
131149  1  0  0  0  0
132153  1  0  0  0  0
133148  1  0  0  0  0
107134  1  1  0  0  0
135 77  1  0  0  0  0
136126  1  0  0  0  0
137125  1  0  0  0  0
138105  1  0  0  0  0
139106  1  0  0  0  0
 69140  1  0  0  0  0
 75141  1  0  0  0  0
 74142  1  0  0  0  0
 73143  1  0  0  0  0
 72144  1  0  0  0  0
 78145  1  0  0  0  0
 71146  1  6  0  0  0
 70147  1  6  0  0  0
148172  1  0  0  0  0
149175  1  0  0  0  0
150171  1  0  0  0  0
151173  1  0  0  0  0
152176  1  0  0  0  0
153174  1  0  0  0  0
117154  1  0  0  0  0
107155  1  0  0  0  0
156116  1  0  0  0  0
157116  1  0  0  0  0
158115  1  0  0  0  0
159115  1  0  0  0  0
117160  1  6  0  0  0
161123  2  0  0  0  0
162124  2  0  0  0  0
163123  1  0  0  0  0
164124  1  0  0  0  0
165143  1  0  0  0  0
166140  1  0  0  0  0
167145  1  0  0  0  0
168141  1  0  0  0  0
169142  1  0  0  0  0
170144  1  0  0  0  0
171167  1  0  0  0  0
172168  1  0  0  0  0
173166  1  0  0  0  0
174170  1  0  0  0  0
175169  1  0  0  0  0
176165  1  0  0  0  0
177139  1  0  0  0  0
178138  1  0  0  0  0
179138  1  0  0  0  0
180139  1  0  0  0  0
181154  1  0  0  0  0
182162  1  0  0  0  0
183163  2  0  0  0  0
184161  1  0  0  0  0
185164  2  0  0  0  0
186185  1  0  0  0  0
187183  1  0  0  0  0
 55 76  2  0  0  0  0
182186  2  0  0  0  0
184187  2  0  0  0  0
M  END
> <From>
www.bindingDB.org

> <BindingDB Reactant_set_id>
51016953

> <Ligand InChI>
InChI=1S/C121H201N33O33/c1-14-68(10)98(153-109(174)80(42-26-32-50-127)142-118(183)97(67(8)9)151-107(172)78(40-24-30-48-125)138-103(168)75(37-21-27-45-122)135-93(160)60-131-102(167)89(61-155)149-101(166)70(12)134-120(185)99(71(13)157)154-115(180)85(55-74-59-130-63-132-74)145-112(177)84(136-92(159)58-128)53-72-33-17-15-18-34-72)119(184)133-69(11)100(165)137-76(38-22-28-46-123)104(169)140-81(43-44-94(161)162)106(171)150-90(62-156)116(181)144-82(51-64(2)3)110(175)147-87(57-95(163)164)114(179)139-79(41-25-31-49-126)108(173)152-96(66(6)7)117(182)141-77(39-23-29-47-124)105(170)146-86(56-91(129)158)113(178)143-83(52-65(4)5)111(176)148-88(121(186)187)54-73-35-19-16-20-36-73/h15-20,33-36,59,63-71,75-90,96-99,155-157H,14,21-32,37-58,60-62,122-128H2,1-13H3,(H2,129,158)(H,130,132)(H,131,167)(H,133,184)(H,134,185)(H,135,160)(H,136,159)(H,137,165)(H,138,168)(H,139,179)(H,140,169)(H,141,182)(H,142,183)(H,143,178)(H,144,181)(H,145,177)(H,146,170)(H,147,175)(H,148,176)(H,149,166)(H,150,171)(H,151,172)(H,152,173)(H,153,174)(H,154,180)(H,161,162)(H,163,164)(H,186,187)/t68-,69-,70-,71+,75-,76-,77-,78-,79-,80-,81-,82-,83-,84-,85-,86-,87-,88-,89-,90-,96-,97-,98-,99-/m0/s1

> <Ligand InChI Key>
JXEIUXCHCRAUMP-SRJRRBQKSA-N

> <BindingDB MonomerID>
50416564

> <BindingDB Ligand Name>
CHEMBL1215813

> <Target Name>
DNA repair protein RAD51 homolog 1

> <Target Source Organism According to Curator or DataSource>
Homo sapiens

> <Ki (nM)>


> <IC50 (nM)>
 11000

> <Kd (nM)>


> <EC50 (nM)>


> <kon (M-1-s-1)>


> <koff (s-1)>


> <pH>


> <Temp C>


> <Curation/DataSource>
ChEMBL

> <Article DOI>
10.1021/jm1002974

> <BindingDB Entry DOI>
10.7270/Q2NG4RV5

> <PMID>
20684611

> <PubChem AID>


> <Patent Number>


> <Authors>
Nomme, J; Renodon-Corniere, A; Asanomi, Y; Sakaguchi, K; Stasiak, AZ; Stasiak, A; Norden, B; Tran, V; Takahashi, M

> <Date of publication>
8/5/2010

> <Date in BindingDB>
5/22/2013

> <Institution>
Centre National de la Recherche Scientifique & Universite de Nantes

> <Link to Ligand in BindingDB>
http://www.bindingdb.org/bind/chemsearch/marvin/MolStructure.jsp?monomerid=50416564

> <Link to Ligand-Target Pair in BindingDB>
http://www.bindingdb.org/jsp/dbsearch/PrimarySearch_ki.jsp?energyterm=kJ/mole&tag=pol&polymerid=4676&target=DNA+repair+protein+RAD51+homolog+1&column=ki&startPg=0&Increment=50&submit=Search

> <Link to Ligand-Target Pair in BindingDB>
http://www.bindingdb.org/jsp/dbsearch/PrimarySearch_ki.jsp?energyterm=kJ/mole&tag=r21&monomerid=50416564&enzyme=DNA+repair+protein+RAD51+homolog+1&column=ki&startPg=0&Increment=50&submit=Search

> <Ligand HET ID in PDB>


> <PDB ID(s) for Ligand-Target Complex>


> <PubChem CID of Ligand>
49864242

> <PubChem SID of Ligand>
163365588

> <ChEBI ID of Ligand>


> <ChEMBL ID of Ligand>
CHEMBL1215813

> <DrugBank ID of Ligand>


> <IUPHAR_GRAC ID of Ligand>


> <KEGG ID of Ligand>


> <ZINC ID of Ligand>


> <Number of Protein Chains in Target (bigger than 1 implies a multichain complex)>
1

> <BindingDB Target Chain Sequence>
MAMQMQLEANADTSVEEESFGPQPISRLEQCGINANDVKKLEEAGFHTVEAVAYAPKKELINIKGISEAKADKILAEAAKLVPMGFTTATEFHQRRSEIIQITTGSKELDKLLQGGIETGSITEMFGEFRTGKTQICHTLAVTCQLPIDRGGGEGKAMYIDTEGTFRPERLLAVAERYGLSGSDVLDNVAYARAFNTDHQTQLLYQASAMMVESRYALLIVDSATALYRTDYSGRGELSARQMHLARFLRMLLRLADEFGVAVVITNQVVAQVDGAAMFAADPKKPIGGNIIAHASTTRLYLRKGRGETRICKIYDSPCLPEAEAMFAINADGVGDAKD

> <PDB ID(s) of Target Chain>
1N0W,5JZC,5NP7,5NWL,8BQ2,8BR2,8BSC

> <UniProt (SwissProt) Recommended Name of Target Chain>
DNA repair protein RAD51 homolog 1

> <UniProt (SwissProt) Entry Name of Target Chain>
RAD51_HUMAN

> <UniProt (SwissProt) Primary ID of Target Chain>
Q06609

> <UniProt (SwissProt) Secondary ID(s) of Target Chain>
B0FXP0 B2R8T6 Q6FHX9 Q6ZNA8 Q9BV60

> <UniProt (SwissProt) Alternative ID(s) of Target Chain>


> <UniProt (TrEMBL) Submitted Name of Target Chain>


> <UniProt (TrEMBL) Entry Name of Target Chain>


> <UniProt (TrEMBL) Primary ID of Target Chain>


> <UniProt (TrEMBL) Secondary ID(s) of Target Chain>


> <UniProt (TrEMBL) Alternative ID(s) of Target Chain>


$$$$

  Mrv0541 11241415252D          

189191  0  0  0  0            999 V2000
    2.2500  -26.8625    0.0000 C   0  0  1  0  0  0  0  0  0  0  0  0
    2.9625  -26.4500    0.0000 C   0  0  0  0  0  0  0  0  0  0  0  0
    1.5333  -26.4500    0.0000 N   0  0  0  0  0  0  0  0  0  0  0  0
   15.8375  -26.4500    0.0000 C   0  0  0  0  0  0  0  0  0  0  0  0
   20.1292  -26.4500    0.0000 C   0  0  0  0  0  0  0  0  0  0  0  0
   36.5792  -27.6875    0.0000 C   0  0  0  0  0  0  0  0  0  0  0  0
   14.4083  -26.4500    0.0000 N   0  0  0  0  0  0  0  0  0  0  0  0
   35.1458  -27.6875    0.0000 N   0  0  0  0  0  0  0  0  0  0  0  0
   18.7000  -26.4500    0.0000 N   0  0  0  0  0  0  0  0  0  0  0  0
    0.8208  -26.8625    0.0000 C   0  0  0  0  0  0  0  0  0  0  0  0
   28.7125  -26.4500    0.0000 C   0  0  0  0  0  0  0  0  0  0  0  0
   34.4333  -28.1000    0.0000 C   0  0  0  0  0  0  0  0  0  0  0  0
   17.9833  -26.8625    0.0000 C   0  0  0  0  0  0  0  0  0  0  0  0
   13.6958  -26.8625    0.0000 C   0  0  0  0  0  0  0  0  0  0  0  0
   40.8667  -27.6875    0.0000 C   0  0  0  0  0  0  0  0  0  0  0  0
   32.2875  -27.6875    0.0000 C   0  0  0  0  0  0  0  0  0  0  0  0
   43.0167  -28.1000    0.0000 C   0  0  0  0  0  0  0  0  0  0  0  0
   30.8583  -26.8625    0.0000 C   0  0  0  0  0  0  0  0  0  0  0  0
   -1.3250  -26.4500    0.0000 C   0  0  0  0  0  0  0  0  0  0  0  0
   26.5667  -26.8625    0.0000 C   0  0  0  0  0  0  0  0  0  0  0  0
    5.1083  -26.8625    0.0000 C   0  0  0  0  0  0  0  0  0  0  0  0
   38.7208  -28.1000    0.0000 C   0  0  0  0  0  0  0  0  0  0  0  0
   22.2792  -26.8625    0.0000 C   0  0  0  0  0  0  0  0  0  0  0  0
   24.4250  -26.4500    0.0000 C   0  0  0  0  0  0  0  0  0  0  0  0
   11.5500  -26.4500    0.0000 C   0  0  0  0  0  0  0  0  0  0  0  0
   27.2833  -26.4500    0.0000 N   0  0  0  0  0  0  0  0  0  0  0  0
    5.8292  -26.4500    0.0000 N   0  0  0  0  0  0  0  0  0  0  0  0
   28.0000  -26.8625    0.0000 C   0  0  1  0  0  0  0  0  0  0  0  0
   30.8583  -27.6875    0.0000 N   0  0  0  0  0  0  0  0  0  0  0  0
   29.4292  -26.8625    0.0000 N   0  0  0  0  0  0  0  0  0  0  0  0
   39.4375  -27.6875    0.0000 N   0  0  0  0  0  0  0  0  0  0  0  0
    3.6792  -26.8625    0.0000 N   0  0  0  0  0  0  0  0  0  0  0  0
    6.5417  -26.8625    0.0000 C   0  0  2  0  0  0  0  0  0  0  0  0
   41.5875  -28.1000    0.0000 N   0  0  0  0  0  0  0  0  0  0  0  0
   -0.6125  -26.8625    0.0000 N   0  0  0  0  0  0  0  0  0  0  0  0
   15.1250  -26.8625    0.0000 C   0  0  1  0  0  0  0  0  0  0  0  0
   35.8625  -28.1000    0.0000 C   0  0  1  0  0  0  0  0  0  0  0  0
   19.4125  -26.8625    0.0000 C   0  0  1  0  0  0  0  0  0  0  0  0
   43.0167  -28.9250    0.0000 N   0  0  0  0  0  0  0  0  0  0  0  0
   20.8458  -26.8625    0.0000 N   0  0  0  0  0  0  0  0  0  0  0  0
   16.5542  -26.8625    0.0000 N   0  0  0  0  0  0  0  0  0  0  0  0
   37.2917  -28.1000    0.0000 N   0  0  0  0  0  0  0  0  0  0  0  0
   40.1583  -28.1000    0.0000 C   0  0  1  0  0  0  0  0  0  0  0  0
   31.5750  -28.1000    0.0000 C   0  0  1  0  0  0  0  0  0  0  0  0
   25.1375  -26.8625    0.0000 N   0  0  0  0  0  0  0  0  0  0  0  0
   33.0042  -28.1000    0.0000 N   0  0  0  0  0  0  0  0  0  0  0  0
   12.2625  -26.8625    0.0000 N   0  0  0  0  0  0  0  0  0  0  0  0
   22.9917  -26.4500    0.0000 N   0  0  0  0  0  0  0  0  0  0  0  0
    7.2583  -26.4500    0.0000 C   0  0  0  0  0  0  0  0  0  0  0  0
   40.1583  -28.9250    0.0000 C   0  0  0  0  0  0  0  0  0  0  0  0
   31.5750  -28.9250    0.0000 C   0  0  0  0  0  0  0  0  0  0  0  0
    0.1042  -26.4500    0.0000 C   0  0  1  0  0  0  0  0  0  0  0  0
   30.1417  -26.4500    0.0000 C   0  0  1  0  0  0  0  0  0  0  0  0
   42.3000  -27.6875    0.0000 C   0  0  1  0  0  0  0  0  0  0  0  0
   -2.0417  -26.8625    0.0000 C   0  0  1  0  0  0  0  0  0  0  0  0
   43.7333  -29.3375    0.0000 C   0  0  2  0  0  0  0  0  0  0  0  0
   44.4458  -28.9250    0.0000 C   0  0  0  0  0  0  0  0  0  0  0  0
   -2.7542  -26.4500    0.0000 N   0  0  0  0  0  0  0  0  0  0  0  0
   10.1208  -26.4500    0.0000 N   0  0  0  0  0  0  0  0  0  0  0  0
   25.8542  -26.4500    0.0000 C   0  0  1  0  0  0  0  0  0  0  0  0
   40.8667  -29.3375    0.0000 C   0  0  0  0  0  0  0  0  0  0  0  0
   30.8583  -29.3375    0.0000 C   0  0  0  0  0  0  0  0  0  0  0  0
    9.4042  -26.8625    0.0000 C   0  0  0  0  0  0  0  0  0  0  0  0
    7.9750  -26.8625    0.0000 N   0  0  0  0  0  0  0  0  0  0  0  0
   17.2708  -26.4500    0.0000 C   0  0  1  0  0  0  0  0  0  0  0  0
   21.5583  -26.4500    0.0000 C   0  0  1  0  0  0  0  0  0  0  0  0
    4.4000  -26.4500    0.0000 C   0  0  1  0  0  0  0  0  0  0  0  0
   12.9792  -26.4500    0.0000 C   0  0  1  0  0  0  0  0  0  0  0  0
   33.7167  -27.6875    0.0000 C   0  0  1  0  0  0  0  0  0  0  0  0
   38.0083  -27.6875    0.0000 C   0  0  1  0  0  0  0  0  0  0  0  0
   23.7083  -26.8625    0.0000 C   0  0  1  0  0  0  0  0  0  0  0  0
   -3.4708  -26.8625    0.0000 C   0  0  0  0  0  0  0  0  0  0  0  0
   10.8333  -26.8625    0.0000 C   0  0  1  0  0  0  0  0  0  0  0  0
   26.5667  -24.3875    0.0000 C   0  0  0  0  0  0  0  0  0  0  0  0
    2.9625  -25.6250    0.0000 O   0  0  0  0  0  0  0  0  0  0  0  0
   36.5792  -26.8625    0.0000 O   0  0  0  0  0  0  0  0  0  0  0  0
   15.8375  -25.6250    0.0000 O   0  0  0  0  0  0  0  0  0  0  0  0
   20.1292  -25.6250    0.0000 O   0  0  0  0  0  0  0  0  0  0  0  0
   28.7125  -25.6250    0.0000 O   0  0  0  0  0  0  0  0  0  0  0  0
    0.8208  -27.6875    0.0000 O   0  0  0  0  0  0  0  0  0  0  0  0
   13.6958  -27.6875    0.0000 O   0  0  0  0  0  0  0  0  0  0  0  0
   17.9833  -27.6875    0.0000 O   0  0  0  0  0  0  0  0  0  0  0  0
   34.4333  -28.9250    0.0000 O   0  0  0  0  0  0  0  0  0  0  0  0
   40.8667  -26.8625    0.0000 O   0  0  0  0  0  0  0  0  0  0  0  0
   -1.3250  -25.6250    0.0000 O   0  0  0  0  0  0  0  0  0  0  0  0
   31.5750  -26.4500    0.0000 O   0  0  0  0  0  0  0  0  0  0  0  0
   32.2875  -26.8625    0.0000 O   0  0  0  0  0  0  0  0  0  0  0  0
   43.7333  -27.6875    0.0000 O   0  0  0  0  0  0  0  0  0  0  0  0
    5.1083  -27.6875    0.0000 O   0  0  0  0  0  0  0  0  0  0  0  0
   22.2792  -27.6875    0.0000 O   0  0  0  0  0  0  0  0  0  0  0  0
   26.5667  -27.6875    0.0000 O   0  0  0  0  0  0  0  0  0  0  0  0
   38.7208  -28.9250    0.0000 O   0  0  0  0  0  0  0  0  0  0  0  0
   24.4250  -25.6250    0.0000 O   0  0  0  0  0  0  0  0  0  0  0  0
   11.5500  -25.6250    0.0000 O   0  0  0  0  0  0  0  0  0  0  0  0
    0.1042  -25.6250    0.0000 C   0  0  0  0  0  0  0  0  0  0  0  0
   -2.0417  -27.6875    0.0000 C   0  0  0  0  0  0  0  0  0  0  0  0
   43.7333  -30.1667    0.0000 C   0  0  0  0  0  0  0  0  0  0  0  0
    7.2583  -25.6250    0.0000 O   0  0  0  0  0  0  0  0  0  0  0  0
   45.1625  -29.3375    0.0000 O   0  0  0  0  0  0  0  0  0  0  0  0
   42.3000  -26.8625    0.0000 C   0  0  0  0  0  0  0  0  0  0  0  0
   30.1417  -25.6250    0.0000 C   0  0  0  0  0  0  0  0  0  0  0  0
    2.2500  -27.6875    0.0000 C   0  0  2  0  0  0  0  0  0  0  0  0
   40.8667  -30.1667    0.0000 O   0  0  0  0  0  0  0  0  0  0  0  0
   30.1417  -28.9250    0.0000 O   0  0  0  0  0  0  0  0  0  0  0  0
    9.4042  -27.6875    0.0000 O   0  0  0  0  0  0  0  0  0  0  0  0
   -3.4708  -27.6875    0.0000 O   0  0  0  0  0  0  0  0  0  0  0  0
   27.2833  -23.9708    0.0000 O   0  0  0  0  0  0  0  0  0  0  0  0
   25.8542  -25.6250    0.0000 C   0  0  0  0  0  0  0  0  0  0  0  0
    8.6875  -26.4500    0.0000 C   0  0  0  0  0  0  0  0  0  0  0  0
   15.1250  -27.6875    0.0000 C   0  0  0  0  0  0  0  0  0  0  0  0
   35.8625  -28.9250    0.0000 C   0  0  0  0  0  0  0  0  0  0  0  0
   19.4125  -27.6875    0.0000 C   0  0  2  0  0  0  0  0  0  0  0  0
   41.5875  -28.9250    0.0000 N   0  0  0  0  0  0  0  0  0  0  0  0
   26.5667  -25.2083    0.0000 C   0  0  0  0  0  0  0  0  0  0  0  0
    0.8208  -25.2083    0.0000 C   0  0  0  0  0  0  0  0  0  0  0  0
   44.4458  -28.1000    0.0000 O   0  0  0  0  0  0  0  0  0  0  0  0
    2.2458  -24.3833    0.0000 C   0  0  0  0  0  0  0  0  0  0  0  0
   30.8583  -30.1667    0.0000 O   0  0  0  0  0  0  0  0  0  0  0  0
   25.8542  -23.9708    0.0000 O   0  0  0  0  0  0  0  0  0  0  0  0
   44.4458  -30.5792    0.0000 C   0  0  0  0  0  0  0  0  0  0  0  0
   -1.3250  -28.1000    0.0000 C   0  0  0  0  0  0  0  0  0  0  0  0
   28.0000  -27.6875    0.0000 C   0  0  0  0  0  0  0  0  0  0  0  0
    6.5417  -27.6875    0.0000 C   0  0  0  0  0  0  0  0  0  0  0  0
   -4.9000  -26.8625    0.0000 N   0  0  0  0  0  0  0  0  0  0  0  0
    1.5333  -25.6250    0.0000 C   0  0  0  0  0  0  0  0  0  0  0  0
    0.8208  -24.3833    0.0000 C   0  0  0  0  0  0  0  0  0  0  0  0
   14.4083  -23.1458    0.0000 N   0  0  0  0  0  0  0  0  0  0  0  0
   39.4375  -24.3875    0.0000 N   0  0  0  0  0  0  0  0  0  0  0  0
   33.7167  -24.3875    0.0000 N   0  0  0  0  0  0  0  0  0  0  0  0
   25.1375  -30.1667    0.0000 N   0  0  0  0  0  0  0  0  0  0  0  0
   12.2625  -30.1667    0.0000 N   0  0  0  0  0  0  0  0  0  0  0  0
   18.7000  -23.1458    0.0000 N   0  0  0  0  0  0  0  0  0  0  0  0
    2.2458  -25.2083    0.0000 C   0  0  0  0  0  0  0  0  0  0  0  0
    1.5333  -23.9750    0.0000 C   0  0  0  0  0  0  0  0  0  0  0  0
    2.9625  -28.1000    0.0000 O   0  0  0  0  0  0  0  0  0  0  0  0
    2.9625  -23.9750    0.0000 O   0  0  0  0  0  0  0  0  0  0  0  0
   -4.1875  -26.4500    0.0000 C   0  0  0  0  0  0  0  0  0  0  0  0
    7.2583  -28.1000    0.0000 O   0  0  0  0  0  0  0  0  0  0  0  0
   28.7125  -28.1000    0.0000 O   0  0  0  0  0  0  0  0  0  0  0  0
   43.0167  -26.4500    0.0000 C   0  0  0  0  0  0  0  0  0  0  0  0
   30.8583  -25.2083    0.0000 C   0  0  0  0  0  0  0  0  0  0  0  0
   17.2708  -25.6250    0.0000 C   0  0  0  0  0  0  0  0  0  0  0  0
   33.7167  -26.8625    0.0000 C   0  0  0  0  0  0  0  0  0  0  0  0
   23.7083  -27.6875    0.0000 C   0  0  0  0  0  0  0  0  0  0  0  0
   12.9792  -25.6250    0.0000 C   0  0  0  0  0  0  0  0  0  0  0  0
   38.0083  -26.8625    0.0000 C   0  0  0  0  0  0  0  0  0  0  0  0
   10.8333  -27.6875    0.0000 C   0  0  0  0  0  0  0  0  0  0  0  0
    4.4000  -25.6250    0.0000 C   0  0  0  0  0  0  0  0  0  0  0  0
   21.5583  -25.6250    0.0000 C   0  0  0  0  0  0  0  0  0  0  0  0
   12.2625  -29.3375    0.0000 C   0  0  0  0  0  0  0  0  0  0  0  0
   18.7000  -23.9708    0.0000 C   0  0  0  0  0  0  0  0  0  0  0  0
   14.4083  -23.9708    0.0000 C   0  0  0  0  0  0  0  0  0  0  0  0
   33.7167  -25.2083    0.0000 C   0  0  0  0  0  0  0  0  0  0  0  0
   25.1375  -29.3375    0.0000 C   0  0  0  0  0  0  0  0  0  0  0  0
   39.4375  -25.2083    0.0000 C   0  0  0  0  0  0  0  0  0  0  0  0
   18.7000  -28.1000    0.0000 C   0  0  0  0  0  0  0  0  0  0  0  0
    1.5333  -28.1000    0.0000 C   0  0  0  0  0  0  0  0  0  0  0  0
   15.8375  -28.1000    0.0000 C   0  0  0  0  0  0  0  0  0  0  0  0
   14.4083  -28.1000    0.0000 C   0  0  0  0  0  0  0  0  0  0  0  0
   36.5792  -29.3375    0.0000 C   0  0  0  0  0  0  0  0  0  0  0  0
   35.1458  -29.3375    0.0000 C   0  0  0  0  0  0  0  0  0  0  0  0
   20.1292  -28.1000    0.0000 C   0  0  0  0  0  0  0  0  0  0  0  0
   45.1583  -30.1667    0.0000 C   0  0  0  0  0  0  0  0  0  0  0  0
   -1.3250  -28.9250    0.0000 C   0  0  0  0  0  0  0  0  0  0  0  0
   44.4458  -31.4000    0.0000 C   0  0  0  0  0  0  0  0  0  0  0  0
   -0.6083  -27.6875    0.0000 C   0  0  0  0  0  0  0  0  0  0  0  0
   11.5500  -28.1000    0.0000 C   0  0  0  0  0  0  0  0  0  0  0  0
   24.4250  -28.1000    0.0000 C   0  0  0  0  0  0  0  0  0  0  0  0
   38.7208  -26.4500    0.0000 C   0  0  0  0  0  0  0  0  0  0  0  0
   33.0042  -26.4500    0.0000 C   0  0  0  0  0  0  0  0  0  0  0  0
   13.6958  -25.2083    0.0000 C   0  0  0  0  0  0  0  0  0  0  0  0
   17.9833  -25.2083    0.0000 C   0  0  0  0  0  0  0  0  0  0  0  0
   17.9833  -24.3875    0.0000 C   0  0  0  0  0  0  0  0  0  0  0  0
   33.0042  -25.6250    0.0000 C   0  0  0  0  0  0  0  0  0  0  0  0
   38.7208  -25.6250    0.0000 C   0  0  0  0  0  0  0  0  0  0  0  0
   13.6958  -24.3875    0.0000 C   0  0  0  0  0  0  0  0  0  0  0  0
   11.5500  -28.9250    0.0000 C   0  0  0  0  0  0  0  0  0  0  0  0
   24.4250  -28.9250    0.0000 C   0  0  0  0  0  0  0  0  0  0  0  0
   30.8583  -24.3875    0.0000 C   0  0  0  0  0  0  0  0  0  0  0  0
   43.0167  -25.6250    0.0000 C   0  0  0  0  0  0  0  0  0  0  0  0
   43.7333  -26.8625    0.0000 C   0  0  0  0  0  0  0  0  0  0  0  0
   31.5750  -25.6250    0.0000 C   0  0  0  0  0  0  0  0  0  0  0  0
   18.7000  -28.9250    0.0000 C   0  0  0  0  0  0  0  0  0  0  0  0
   -0.6083  -29.3375    0.0000 C   0  0  0  0  0  0  0  0  0  0  0  0
   45.1583  -31.8167    0.0000 C   0  0  0  0  0  0  0  0  0  0  0  0
   45.8708  -30.5792    0.0000 C   0  0  0  0  0  0  0  0  0  0  0  0
    0.1000  -28.1000    0.0000 C   0  0  0  0  0  0  0  0  0  0  0  0
    0.1000  -28.9250    0.0000 C   0  0  0  0  0  0  0  0  0  0  0  0
   45.8708  -31.4000    0.0000 C   0  0  0  0  0  0  0  0  0  0  0  0
  1  2  1  0  0  0  0
  1  3  1  6  0  0  0
 36  4  1  0  0  0  0
 38  5  1  0  0  0  0
 37  6  1  0  0  0  0
  7 14  1  0  0  0  0
  8 12  1  0  0  0  0
  9 13  1  0  0  0  0
 10  3  1  0  0  0  0
 28 11  1  0  0  0  0
 69 12  1  0  0  0  0
 65 13  1  0  0  0  0
 68 14  1  0  0  0  0
 43 15  1  0  0  0  0
 44 16  1  0  0  0  0
 54 17  1  0  0  0  0
 53 18  1  0  0  0  0
 19 35  1  0  0  0  0
 60 20  1  0  0  0  0
 67 21  1  0  0  0  0
 70 22  1  0  0  0  0
 66 23  1  0  0  0  0
 71 24  1  0  0  0  0
 73 25  1  0  0  0  0
 26 20  1  0  0  0  0
 27 21  1  0  0  0  0
 28 26  1  6  0  0  0
 29 18  1  0  0  0  0
 30 11  1  0  0  0  0
 31 22  1  0  0  0  0
 32  2  1  0  0  0  0
 33 27  1  6  0  0  0
 34 15  1  0  0  0  0
 52 35  1  1  0  0  0
 36  7  1  6  0  0  0
 37  8  1  6  0  0  0
 38  9  1  6  0  0  0
 39 17  1  0  0  0  0
 40  5  1  0  0  0  0
 41  4  1  0  0  0  0
 42  6  1  0  0  0  0
 43 31  1  6  0  0  0
 44 29  1  6  0  0  0
 45 24  1  0  0  0  0
 46 16  1  0  0  0  0
 47 25  1  0  0  0  0
 48 23  1  0  0  0  0
 33 49  1  0  0  0  0
 43 50  1  0  0  0  0
 44 51  1  0  0  0  0
 52 10  1  0  0  0  0
 53 30  1  1  0  0  0
 54 34  1  1  0  0  0
 55 19  1  0  0  0  0
 56 39  1  6  0  0  0
 56 57  1  0  0  0  0
 55 58  1  6  0  0  0
 59 63  1  0  0  0  0
 60 45  1  1  0  0  0
 61 50  1  0  0  0  0
 62 51  1  0  0  0  0
 63109  1  0  0  0  0
 64 49  1  0  0  0  0
 65 41  1  1  0  0  0
 66 40  1  0  0  0  0
 67 32  1  0  0  0  0
 68 47  1  1  0  0  0
 69 46  1  1  0  0  0
 70 42  1  1  0  0  0
 71 48  1  6  0  0  0
 72 58  1  0  0  0  0
 73 59  1  6  0  0  0
 74114  1  0  0  0  0
 75  2  2  0  0  0  0
 76  6  2  0  0  0  0
 77  4  2  0  0  0  0
 78  5  2  0  0  0  0
 79 11  2  0  0  0  0
 80 10  2  0  0  0  0
 81 14  2  0  0  0  0
 82 13  2  0  0  0  0
 83 12  2  0  0  0  0
 84 15  2  0  0  0  0
 85 19  2  0  0  0  0
 86 18  2  0  0  0  0
 87 16  2  0  0  0  0
 88 17  2  0  0  0  0
 89 21  2  0  0  0  0
 90 23  2  0  0  0  0
 91 20  2  0  0  0  0
 92 22  2  0  0  0  0
 93 24  2  0  0  0  0
 94 25  2  0  0  0  0
 52 95  1  0  0  0  0
 55 96  1  0  0  0  0
 56 97  1  0  0  0  0
 98 49  2  0  0  0  0
 99 57  2  0  0  0  0
 54100  1  0  0  0  0
 53101  1  0  0  0  0
  1102  1  0  0  0  0
103 61  2  0  0  0  0
104 62  2  0  0  0  0
105 63  2  0  0  0  0
106 72  2  0  0  0  0
107 74  2  0  0  0  0
 60108  1  0  0  0  0
109 64  1  0  0  0  0
 36110  1  0  0  0  0
 37111  1  0  0  0  0
 38112  1  0  0  0  0
113 61  1  0  0  0  0
114108  1  0  0  0  0
115 95  1  0  0  0  0
116 57  1  0  0  0  0
117133  2  0  0  0  0
118 62  1  0  0  0  0
119 74  1  0  0  0  0
120 97  1  0  0  0  0
121 96  1  0  0  0  0
 28122  1  0  0  0  0
 33123  1  0  0  0  0
124137  1  0  0  0  0
125115  2  0  0  0  0
126115  1  0  0  0  0
127152  1  0  0  0  0
128155  1  0  0  0  0
129153  1  0  0  0  0
130154  1  0  0  0  0
131150  1  0  0  0  0
132151  1  0  0  0  0
133125  1  0  0  0  0
134126  2  0  0  0  0
102135  1  6  0  0  0
136117  1  0  0  0  0
137 72  1  0  0  0  0
138123  1  0  0  0  0
139122  1  0  0  0  0
140100  1  0  0  0  0
141101  1  0  0  0  0
 65142  1  0  0  0  0
 69143  1  0  0  0  0
 71144  1  0  0  0  0
 68145  1  0  0  0  0
 70146  1  0  0  0  0
 73147  1  0  0  0  0
 67148  1  1  0  0  0
 66149  1  1  0  0  0
150177  1  0  0  0  0
151173  1  0  0  0  0
152176  1  0  0  0  0
153174  1  0  0  0  0
154178  1  0  0  0  0
155175  1  0  0  0  0
112156  1  0  0  0  0
102157  1  0  0  0  0
158110  1  0  0  0  0
159110  1  0  0  0  0
160111  1  0  0  0  0
161111  1  0  0  0  0
112162  1  1  0  0  0
163120  2  0  0  0  0
164121  2  0  0  0  0
165120  1  0  0  0  0
166121  1  0  0  0  0
167147  1  0  0  0  0
168144  1  0  0  0  0
169146  1  0  0  0  0
170143  1  0  0  0  0
171145  1  0  0  0  0
172142  1  0  0  0  0
173172  1  0  0  0  0
174170  1  0  0  0  0
175169  1  0  0  0  0
176171  1  0  0  0  0
177167  1  0  0  0  0
178168  1  0  0  0  0
179141  1  0  0  0  0
180140  1  0  0  0  0
181140  1  0  0  0  0
182141  1  0  0  0  0
183156  1  0  0  0  0
184164  1  0  0  0  0
185165  2  0  0  0  0
186163  1  0  0  0  0
187166  2  0  0  0  0
188187  1  0  0  0  0
189185  1  0  0  0  0
134117  1  0  0  0  0
184188  2  0  0  0  0
186189  2  0  0  0  0
M  END
> <From>
www.bindingDB.org

> <BindingDB Reactant_set_id>
51016954

> <Ligand InChI>
InChI=1S/C124H203N31O34/c1-14-70(10)101(154-112(176)83(42-26-32-54-130)143-121(185)100(69(8)9)152-110(174)81(40-24-30-52-128)139-106(170)78(37-21-27-49-125)136-96(162)63-133-105(169)92(64-156)150-104(168)72(12)135-123(187)102(73(13)158)155-118(182)88(58-76-43-45-77(159)46-44-76)146-115(179)87(137-95(161)62-131)57-74-33-17-15-18-34-74)122(186)134-71(11)103(167)138-79(38-22-28-50-126)107(171)141-84(47-48-97(163)164)109(173)151-93(65-157)119(183)145-85(55-66(2)3)113(177)148-90(61-98(165)166)117(181)140-82(41-25-31-53-129)111(175)153-99(68(6)7)120(184)142-80(39-23-29-51-127)108(172)147-89(60-94(132)160)116(180)144-86(56-67(4)5)114(178)149-91(124(188)189)59-75-35-19-16-20-36-75/h15-20,33-36,43-46,66-73,78-93,99-102,156-159H,14,21-32,37-42,47-65,125-131H2,1-13H3,(H2,132,160)(H,133,169)(H,134,186)(H,135,187)(H,136,162)(H,137,161)(H,138,167)(H,139,170)(H,140,181)(H,141,171)(H,142,184)(H,143,185)(H,144,180)(H,145,183)(H,146,179)(H,147,172)(H,148,177)(H,149,178)(H,150,168)(H,151,173)(H,152,174)(H,153,175)(H,154,176)(H,155,182)(H,163,164)(H,165,166)(H,188,189)/t70-,71-,72-,73+,78-,79-,80-,81-,82-,83-,84-,85-,86-,87-,88-,89-,90-,91-,92-,93-,99-,100-,101-,102-/m0/s1

> <Ligand InChI Key>
UDGZBBHEGKQNQU-JNVWVPGISA-N

> <BindingDB MonomerID>
50416566

> <BindingDB Ligand Name>
CHEMBL1215815

> <Target Name>
DNA repair protein RAD51 homolog 1

> <Target Source Organism According to Curator or DataSource>
Homo sapiens

> <Ki (nM)>


> <IC50 (nM)>
 7000

> <Kd (nM)>


> <EC50 (nM)>


> <kon (M-1-s-1)>


> <koff (s-1)>


> <pH>


> <Temp C>


> <Curation/DataSource>
ChEMBL

> <Article DOI>
10.1021/jm1002974

> <BindingDB Entry DOI>
10.7270/Q2NG4RV5

> <PMID>
20684611

> <PubChem AID>


> <Patent Number>


> <Authors>
Nomme, J; Renodon-Corniere, A; Asanomi, Y; Sakaguchi, K; Stasiak, AZ; Stasiak, A; Norden, B; Tran, V; Takahashi, M

> <Date of publication>
8/5/2010

> <Date in BindingDB>
5/22/2013

> <Institution>
Centre National de la Recherche Scientifique & Universite de Nantes

> <Link to Ligand in BindingDB>
http://www.bindingdb.org/bind/chemsearch/marvin/MolStructure.jsp?monomerid=50416566

> <Link to Ligand-Target Pair in BindingDB>
http://www.bindingdb.org/jsp/dbsearch/PrimarySearch_ki.jsp?energyterm=kJ/mole&tag=pol&polymerid=4676&target=DNA+repair+protein+RAD51+homolog+1&column=ki&startPg=0&Increment=50&submit=Search

> <Link to Ligand-Target Pair in BindingDB>
http://www.bindingdb.org/jsp/dbsearch/PrimarySearch_ki.jsp?energyterm=kJ/mole&tag=r21&monomerid=50416566&enzyme=DNA+repair+protein+RAD51+homolog+1&column=ki&startPg=0&Increment=50&submit=Search

> <Ligand HET ID in PDB>


> <PDB ID(s) for Ligand-Target Complex>


> <PubChem CID of Ligand>
46899803

> <PubChem SID of Ligand>
163365590

> <ChEBI ID of Ligand>


> <ChEMBL ID of Ligand>
CHEMBL1215815

> <DrugBank ID of Ligand>


> <IUPHAR_GRAC ID of Ligand>


> <KEGG ID of Ligand>


> <ZINC ID of Ligand>


> <Number of Protein Chains in Target (bigger than 1 implies a multichain complex)>
1

> <BindingDB Target Chain Sequence>
MAMQMQLEANADTSVEEESFGPQPISRLEQCGINANDVKKLEEAGFHTVEAVAYAPKKELINIKGISEAKADKILAEAAKLVPMGFTTATEFHQRRSEIIQITTGSKELDKLLQGGIETGSITEMFGEFRTGKTQICHTLAVTCQLPIDRGGGEGKAMYIDTEGTFRPERLLAVAERYGLSGSDVLDNVAYARAFNTDHQTQLLYQASAMMVESRYALLIVDSATALYRTDYSGRGELSARQMHLARFLRMLLRLADEFGVAVVITNQVVAQVDGAAMFAADPKKPIGGNIIAHASTTRLYLRKGRGETRICKIYDSPCLPEAEAMFAINADGVGDAKD

> <PDB ID(s) of Target Chain>
1N0W,5JZC,5NP7,5NWL,8BQ2,8BR2,8BSC

> <UniProt (SwissProt) Recommended Name of Target Chain>
DNA repair protein RAD51 homolog 1

> <UniProt (SwissProt) Entry Name of Target Chain>
RAD51_HUMAN

> <UniProt (SwissProt) Primary ID of Target Chain>
Q06609

> <UniProt (SwissProt) Secondary ID(s) of Target Chain>
B0FXP0 B2R8T6 Q6FHX9 Q6ZNA8 Q9BV60

> <UniProt (SwissProt) Alternative ID(s) of Target Chain>


> <UniProt (TrEMBL) Submitted Name of Target Chain>


> <UniProt (TrEMBL) Entry Name of Target Chain>


> <UniProt (TrEMBL) Primary ID of Target Chain>


> <UniProt (TrEMBL) Secondary ID(s) of Target Chain>


> <UniProt (TrEMBL) Alternative ID(s) of Target Chain>


$$$$

  Mrv0541 11241415252D          

188190  0  0  0  0            999 V2000
    1.2958   -2.7000    0.0000 C   0  0  1  0  0  0  0  0  0  0  0  0
    2.0208   -2.2833    0.0000 C   0  0  0  0  0  0  0  0  0  0  0  0
    0.5917   -2.2917    0.0000 N   0  0  0  0  0  0  0  0  0  0  0  0
   14.9208   -2.1875    0.0000 C   0  0  0  0  0  0  0  0  0  0  0  0
   19.2208   -2.1583    0.0000 C   0  0  0  0  0  0  0  0  0  0  0  0
   36.4250   -2.0333    0.0000 C   0  0  0  0  0  0  0  0  0  0  0  0
   13.4875   -2.2000    0.0000 N   0  0  0  0  0  0  0  0  0  0  0  0
   34.9875   -2.0417    0.0000 N   0  0  0  0  0  0  0  0  0  0  0  0
   17.7875   -2.1667    0.0000 N   0  0  0  0  0  0  0  0  0  0  0  0
   -0.1375   -2.7125    0.0000 C   0  0  0  0  0  0  0  0  0  0  0  0
    4.1625   -2.6792    0.0000 C   0  0  0  0  0  0  0  0  0  0  0  0
   27.8208   -2.0958    0.0000 C   0  0  0  0  0  0  0  0  0  0  0  0
   34.2625   -2.4625    0.0000 C   0  0  0  0  0  0  0  0  0  0  0  0
   17.0625   -2.5875    0.0000 C   0  0  0  0  0  0  0  0  0  0  0  0
   12.7625   -2.6167    0.0000 C   0  0  0  0  0  0  0  0  0  0  0  0
   40.7208   -2.0000    0.0000 C   0  0  0  0  0  0  0  0  0  0  0  0
   32.1208   -2.0625    0.0000 C   0  0  0  0  0  0  0  0  0  0  0  0
   29.9625   -2.4917    0.0000 C   0  0  0  0  0  0  0  0  0  0  0  0
   42.8625   -2.4000    0.0000 C   0  0  0  0  0  0  0  0  0  0  0  0
   -2.2833   -2.3125    0.0000 C   0  0  0  0  0  0  0  0  0  0  0  0
    2.7292   -2.6875    0.0000 N   0  0  0  0  0  0  0  0  0  0  0  0
   25.6625   -2.5250    0.0000 C   0  0  0  0  0  0  0  0  0  0  0  0
   38.5625   -2.4292    0.0000 C   0  0  0  0  0  0  0  0  0  0  0  0
   21.3625   -2.5542    0.0000 C   0  0  0  0  0  0  0  0  0  0  0  0
   23.5208   -2.1250    0.0000 C   0  0  0  0  0  0  0  0  0  0  0  0
   10.6208   -2.2208    0.0000 C   0  0  0  0  0  0  0  0  0  0  0  0
    4.8875   -2.2625    0.0000 N   0  0  0  0  0  0  0  0  0  0  0  0
   26.3917   -2.1042    0.0000 N   0  0  0  0  0  0  0  0  0  0  0  0
    3.4542   -2.2708    0.0000 C   0  0  1  0  0  0  0  0  0  0  0  0
   27.0958   -2.5125    0.0000 C   0  0  1  0  0  0  0  0  0  0  0  0
   30.6875   -2.0750    0.0000 N   0  0  0  0  0  0  0  0  0  0  0  0
   28.5292   -2.5042    0.0000 N   0  0  0  0  0  0  0  0  0  0  0  0
   39.2875   -2.0125    0.0000 N   0  0  0  0  0  0  0  0  0  0  0  0
   -1.5667   -2.7208    0.0000 N   0  0  0  0  0  0  0  0  0  0  0  0
    5.5917   -2.6708    0.0000 C   0  0  2  0  0  0  0  0  0  0  0  0
   41.4250   -2.4083    0.0000 N   0  0  0  0  0  0  0  0  0  0  0  0
   14.2000   -2.6042    0.0000 C   0  0  1  0  0  0  0  0  0  0  0  0
   35.6958   -2.4500    0.0000 C   0  0  1  0  0  0  0  0  0  0  0  0
   18.4958   -2.5750    0.0000 C   0  0  1  0  0  0  0  0  0  0  0  0
   43.5917   -1.9833    0.0000 N   0  0  0  0  0  0  0  0  0  0  0  0
   19.9292   -2.5625    0.0000 N   0  0  0  0  0  0  0  0  0  0  0  0
   15.6292   -2.5958    0.0000 N   0  0  0  0  0  0  0  0  0  0  0  0
   37.1292   -2.4417    0.0000 N   0  0  0  0  0  0  0  0  0  0  0  0
   31.4000   -2.4833    0.0000 C   0  0  1  0  0  0  0  0  0  0  0  0
   39.9958   -2.4208    0.0000 C   0  0  1  0  0  0  0  0  0  0  0  0
   24.2292   -2.5333    0.0000 N   0  0  0  0  0  0  0  0  0  0  0  0
   32.8292   -2.4708    0.0000 N   0  0  0  0  0  0  0  0  0  0  0  0
   11.3292   -2.6292    0.0000 N   0  0  0  0  0  0  0  0  0  0  0  0
   22.0875   -2.1375    0.0000 N   0  0  0  0  0  0  0  0  0  0  0  0
    6.3208   -2.2500    0.0000 C   0  0  0  0  0  0  0  0  0  0  0  0
   -0.8458   -2.3042    0.0000 C   0  0  1  0  0  0  0  0  0  0  0  0
   39.9958   -3.2375    0.0000 C   0  0  0  0  0  0  0  0  0  0  0  0
   31.4000   -3.3000    0.0000 C   0  0  0  0  0  0  0  0  0  0  0  0
   29.2542   -2.0833    0.0000 C   0  0  1  0  0  0  0  0  0  0  0  0
   42.1542   -1.9917    0.0000 C   0  0  1  0  0  0  0  0  0  0  0  0
    1.1292   -0.6417    0.0000 N   0  0  0  0  0  0  0  0  0  0  0  0
   -3.0042   -2.7292    0.0000 C   0  0  1  0  0  0  0  0  0  0  0  0
   44.2958   -2.3875    0.0000 C   0  0  2  0  0  0  0  0  0  0  0  0
   45.0250   -1.9708    0.0000 C   0  0  0  0  0  0  0  0  0  0  0  0
   -3.7167   -2.3167    0.0000 N   0  0  0  0  0  0  0  0  0  0  0  0
   -0.1375   -1.0583    0.0000 C   0  0  0  0  0  0  0  0  0  0  0  0
    9.1917   -2.2292    0.0000 N   0  0  0  0  0  0  0  0  0  0  0  0
   24.9542   -2.1167    0.0000 C   0  0  1  0  0  0  0  0  0  0  0  0
   -0.8458   -1.4625    0.0000 C   0  0  0  0  0  0  0  0  0  0  0  0
   40.7208   -3.6542    0.0000 C   0  0  0  0  0  0  0  0  0  0  0  0
   -0.1417   -0.2208    0.0000 N   0  0  0  0  0  0  0  0  0  0  0  0
   32.1208   -3.7167    0.0000 C   0  0  0  0  0  0  0  0  0  0  0  0
    8.4625   -2.6458    0.0000 C   0  0  0  0  0  0  0  0  0  0  0  0
    7.0292   -2.6583    0.0000 N   0  0  0  0  0  0  0  0  0  0  0  0
   16.3542   -2.1792    0.0000 C   0  0  1  0  0  0  0  0  0  0  0  0
   20.6542   -2.1458    0.0000 C   0  0  1  0  0  0  0  0  0  0  0  0
   33.5542   -2.0542    0.0000 C   0  0  1  0  0  0  0  0  0  0  0  0
   12.0542   -2.2083    0.0000 C   0  0  1  0  0  0  0  0  0  0  0  0
   37.8542   -2.0208    0.0000 C   0  0  1  0  0  0  0  0  0  0  0  0
   22.7958   -2.5458    0.0000 C   0  0  1  0  0  0  0  0  0  0  0  0
    0.6458    0.0292    0.0000 C   0  0  0  0  0  0  0  0  0  0  0  0
   -4.4333   -2.7292    0.0000 C   0  0  0  0  0  0  0  0  0  0  0  0
    9.8958   -2.6375    0.0000 C   0  0  1  0  0  0  0  0  0  0  0  0
   25.6625   -0.0292    0.0000 C   0  0  0  0  0  0  0  0  0  0  0  0
    0.6375   -1.3042    0.0000 C   0  0  0  0  0  0  0  0  0  0  0  0
    2.0208   -1.4417    0.0000 O   0  0  0  0  0  0  0  0  0  0  0  0
   19.2208   -1.3167    0.0000 O   0  0  0  0  0  0  0  0  0  0  0  0
   14.9208   -1.3500    0.0000 O   0  0  0  0  0  0  0  0  0  0  0  0
   36.4250   -1.1917    0.0000 O   0  0  0  0  0  0  0  0  0  0  0  0
    4.1625   -3.5000    0.0000 O   0  0  0  0  0  0  0  0  0  0  0  0
   27.8208   -1.2542    0.0000 O   0  0  0  0  0  0  0  0  0  0  0  0
   -0.1375   -3.5292    0.0000 O   0  0  0  0  0  0  0  0  0  0  0  0
   12.7625   -3.4333    0.0000 O   0  0  0  0  0  0  0  0  0  0  0  0
   34.2625   -3.2792    0.0000 O   0  0  0  0  0  0  0  0  0  0  0  0
   17.0625   -3.4042    0.0000 O   0  0  0  0  0  0  0  0  0  0  0  0
   42.8625   -3.2167    0.0000 O   0  0  0  0  0  0  0  0  0  0  0  0
   32.1208   -1.2250    0.0000 O   0  0  0  0  0  0  0  0  0  0  0  0
   29.9625   -3.3125    0.0000 O   0  0  0  0  0  0  0  0  0  0  0  0
   40.7208   -1.1625    0.0000 O   0  0  0  0  0  0  0  0  0  0  0  0
   -2.2833   -1.4750    0.0000 O   0  0  0  0  0  0  0  0  0  0  0  0
   38.5625   -3.2500    0.0000 O   0  0  0  0  0  0  0  0  0  0  0  0
   23.5208   -1.2875    0.0000 O   0  0  0  0  0  0  0  0  0  0  0  0
   25.6625   -3.3417    0.0000 O   0  0  0  0  0  0  0  0  0  0  0  0
   21.3625   -3.3750    0.0000 O   0  0  0  0  0  0  0  0  0  0  0  0
   10.6208   -1.3792    0.0000 O   0  0  0  0  0  0  0  0  0  0  0  0
   -3.0042   -3.5500    0.0000 C   0  0  0  0  0  0  0  0  0  0  0  0
   44.2958   -3.2083    0.0000 C   0  0  0  0  0  0  0  0  0  0  0  0
    6.3208   -1.4125    0.0000 O   0  0  0  0  0  0  0  0  0  0  0  0
   45.0250   -1.1292    0.0000 O   0  0  0  0  0  0  0  0  0  0  0  0
   42.1542   -1.1583    0.0000 C   0  0  0  0  0  0  0  0  0  0  0  0
   29.2542   -1.2458    0.0000 C   0  0  0  0  0  0  0  0  0  0  0  0
    1.2958   -3.5167    0.0000 C   0  0  2  0  0  0  0  0  0  0  0  0
   40.7208   -4.4750    0.0000 O   0  0  0  0  0  0  0  0  0  0  0  0
   32.1208   -4.5375    0.0000 O   0  0  0  0  0  0  0  0  0  0  0  0
    8.4625   -3.4667    0.0000 O   0  0  0  0  0  0  0  0  0  0  0  0
   -4.4333   -3.5583    0.0000 O   0  0  0  0  0  0  0  0  0  0  0  0
   26.3708    0.3792    0.0000 O   0  0  0  0  0  0  0  0  0  0  0  0
   24.9542   -1.2750    0.0000 C   0  0  0  0  0  0  0  0  0  0  0  0
    7.7583   -2.2417    0.0000 C   0  0  0  0  0  0  0  0  0  0  0  0
   35.6958   -3.2708    0.0000 C   0  0  0  0  0  0  0  0  0  0  0  0
   14.2000   -3.4250    0.0000 C   0  0  0  0  0  0  0  0  0  0  0  0
   18.4958   -3.3917    0.0000 C   0  0  2  0  0  0  0  0  0  0  0  0
   41.4458   -3.2375    0.0000 N   0  0  0  0  0  0  0  0  0  0  0  0
   25.6625   -0.8667    0.0000 C   0  0  0  0  0  0  0  0  0  0  0  0
   45.7292   -2.3792    0.0000 O   0  0  0  0  0  0  0  0  0  0  0  0
   32.8458   -3.3000    0.0000 O   0  0  0  0  0  0  0  0  0  0  0  0
   24.9375    0.3875    0.0000 O   0  0  0  0  0  0  0  0  0  0  0  0
   45.0250   -3.6250    0.0000 C   0  0  0  0  0  0  0  0  0  0  0  0
   -2.2792   -3.9667    0.0000 C   0  0  0  0  0  0  0  0  0  0  0  0
    3.4542   -1.4333    0.0000 C   0  0  0  0  0  0  0  0  0  0  0  0
   27.0958   -3.3333    0.0000 C   0  0  0  0  0  0  0  0  0  0  0  0
    5.5917   -3.4875    0.0000 C   0  0  0  0  0  0  0  0  0  0  0  0
   -5.8708   -2.7333    0.0000 N   0  0  0  0  0  0  0  0  0  0  0  0
   11.3458   -5.9292    0.0000 N   0  0  0  0  0  0  0  0  0  0  0  0
   17.7708    1.1500    0.0000 N   0  0  0  0  0  0  0  0  0  0  0  0
   13.4708    1.1208    0.0000 N   0  0  0  0  0  0  0  0  0  0  0  0
   39.2708    1.3083    0.0000 N   0  0  0  0  0  0  0  0  0  0  0  0
   34.9708    1.2750    0.0000 N   0  0  0  0  0  0  0  0  0  0  0  0
   24.2458   -5.8375    0.0000 N   0  0  0  0  0  0  0  0  0  0  0  0
    2.0208   -3.9375    0.0000 O   0  0  0  0  0  0  0  0  0  0  0  0
   -5.1500   -2.3167    0.0000 C   0  0  0  0  0  0  0  0  0  0  0  0
    4.1625   -1.0250    0.0000 O   0  0  0  0  0  0  0  0  0  0  0  0
    6.3208   -3.9042    0.0000 O   0  0  0  0  0  0  0  0  0  0  0  0
   27.8208   -3.7500    0.0000 O   0  0  0  0  0  0  0  0  0  0  0  0
   42.8625   -0.7458    0.0000 C   0  0  0  0  0  0  0  0  0  0  0  0
   29.9625   -0.8375    0.0000 C   0  0  0  0  0  0  0  0  0  0  0  0
   16.3542   -1.3375    0.0000 C   0  0  0  0  0  0  0  0  0  0  0  0
   22.7958   -3.3625    0.0000 C   0  0  0  0  0  0  0  0  0  0  0  0
   37.8542   -1.1833    0.0000 C   0  0  0  0  0  0  0  0  0  0  0  0
   12.0542   -1.3708    0.0000 C   0  0  0  0  0  0  0  0  0  0  0  0
   33.5542   -1.2125    0.0000 C   0  0  0  0  0  0  0  0  0  0  0  0
    9.8958   -3.4583    0.0000 C   0  0  0  0  0  0  0  0  0  0  0  0
   20.6542   -1.3083    0.0000 C   0  0  0  0  0  0  0  0  0  0  0  0
   24.2458   -5.0167    0.0000 C   0  0  0  0  0  0  0  0  0  0  0  0
   39.2708    0.4708    0.0000 C   0  0  0  0  0  0  0  0  0  0  0  0
   11.3458   -5.1125    0.0000 C   0  0  0  0  0  0  0  0  0  0  0  0
   17.7708    0.3167    0.0000 C   0  0  0  0  0  0  0  0  0  0  0  0
   13.4708    0.2833    0.0000 C   0  0  0  0  0  0  0  0  0  0  0  0
   34.9708    0.4417    0.0000 C   0  0  0  0  0  0  0  0  0  0  0  0
   17.7917   -3.8000    0.0000 C   0  0  0  0  0  0  0  0  0  0  0  0
    0.5917   -3.9250    0.0000 C   0  0  0  0  0  0  0  0  0  0  0  0
   14.9208   -3.8417    0.0000 C   0  0  0  0  0  0  0  0  0  0  0  0
   13.4875   -3.8333    0.0000 C   0  0  0  0  0  0  0  0  0  0  0  0
   36.4250   -3.6875    0.0000 C   0  0  0  0  0  0  0  0  0  0  0  0
   34.9875   -3.6750    0.0000 C   0  0  0  0  0  0  0  0  0  0  0  0
   19.2208   -3.8125    0.0000 C   0  0  0  0  0  0  0  0  0  0  0  0
   45.0333   -4.4417    0.0000 C   0  0  0  0  0  0  0  0  0  0  0  0
   -1.5625   -3.5375    0.0000 C   0  0  0  0  0  0  0  0  0  0  0  0
   45.7417   -3.1958    0.0000 C   0  0  0  0  0  0  0  0  0  0  0  0
   -2.2625   -4.7833    0.0000 C   0  0  0  0  0  0  0  0  0  0  0  0
   12.7625   -0.9625    0.0000 C   0  0  0  0  0  0  0  0  0  0  0  0
   17.0625   -0.9333    0.0000 C   0  0  0  0  0  0  0  0  0  0  0  0
   10.6208   -3.8750    0.0000 C   0  0  0  0  0  0  0  0  0  0  0  0
   23.5208   -3.7792    0.0000 C   0  0  0  0  0  0  0  0  0  0  0  0
   38.5625   -0.7750    0.0000 C   0  0  0  0  0  0  0  0  0  0  0  0
   34.2625   -0.8083    0.0000 C   0  0  0  0  0  0  0  0  0  0  0  0
   10.6208   -4.6917    0.0000 C   0  0  0  0  0  0  0  0  0  0  0  0
   23.5208   -4.6000    0.0000 C   0  0  0  0  0  0  0  0  0  0  0  0
   17.0625   -0.0917    0.0000 C   0  0  0  0  0  0  0  0  0  0  0  0
   34.2625    0.0292    0.0000 C   0  0  0  0  0  0  0  0  0  0  0  0
   38.5625    0.0583    0.0000 C   0  0  0  0  0  0  0  0  0  0  0  0
   12.7625   -0.1208    0.0000 C   0  0  0  0  0  0  0  0  0  0  0  0
   29.9625   -0.0042    0.0000 C   0  0  0  0  0  0  0  0  0  0  0  0
   42.8625    0.0917    0.0000 C   0  0  0  0  0  0  0  0  0  0  0  0
   43.5708   -1.1583    0.0000 C   0  0  0  0  0  0  0  0  0  0  0  0
   30.6708   -1.2458    0.0000 C   0  0  0  0  0  0  0  0  0  0  0  0
   17.7917   -4.6417    0.0000 C   0  0  0  0  0  0  0  0  0  0  0  0
   -0.8417   -3.9458    0.0000 C   0  0  0  0  0  0  0  0  0  0  0  0
   46.4583   -3.6042    0.0000 C   0  0  0  0  0  0  0  0  0  0  0  0
   45.7500   -4.8500    0.0000 C   0  0  0  0  0  0  0  0  0  0  0  0
   -1.5500   -5.1917    0.0000 C   0  0  0  0  0  0  0  0  0  0  0  0
   -0.8375   -4.7708    0.0000 C   0  0  0  0  0  0  0  0  0  0  0  0
   46.4583   -4.4292    0.0000 C   0  0  0  0  0  0  0  0  0  0  0  0
  1  2  1  0  0  0  0
  1  3  1  6  0  0  0
 37  4  1  0  0  0  0
 39  5  1  0  0  0  0
 38  6  1  0  0  0  0
  7 15  1  0  0  0  0
  8 13  1  0  0  0  0
  9 14  1  0  0  0  0
 10  3  1  0  0  0  0
 29 11  1  0  0  0  0
 30 12  1  0  0  0  0
 72 13  1  0  0  0  0
 70 14  1  0  0  0  0
 73 15  1  0  0  0  0
 45 16  1  0  0  0  0
 44 17  1  0  0  0  0
 54 18  1  0  0  0  0
 55 19  1  0  0  0  0
 20 34  1  0  0  0  0
 21  2  1  0  0  0  0
 63 22  1  0  0  0  0
 74 23  1  0  0  0  0
 71 24  1  0  0  0  0
 75 25  1  0  0  0  0
 78 26  1  0  0  0  0
 27 11  1  0  0  0  0
 28 22  1  0  0  0  0
 29 21  1  1  0  0  0
 30 28  1  6  0  0  0
 31 18  1  0  0  0  0
 32 12  1  0  0  0  0
 33 23  1  0  0  0  0
 51 34  1  1  0  0  0
 35 27  1  6  0  0  0
 36 16  1  0  0  0  0
 37  7  1  6  0  0  0
 38  8  1  6  0  0  0
 39  9  1  6  0  0  0
 40 19  1  0  0  0  0
 41  5  1  0  0  0  0
 42  4  1  0  0  0  0
 43  6  1  0  0  0  0
 44 31  1  6  0  0  0
 45 33  1  6  0  0  0
 46 25  1  0  0  0  0
 47 17  1  0  0  0  0
 48 26  1  0  0  0  0
 49 24  1  0  0  0  0
 35 50  1  0  0  0  0
 51 10  1  0  0  0  0
 45 52  1  0  0  0  0
 44 53  1  0  0  0  0
 54 32  1  1  0  0  0
 55 36  1  1  0  0  0
 56 80  1  0  0  0  0
 57 20  1  0  0  0  0
 58 40  1  6  0  0  0
 58 59  1  0  0  0  0
 57 60  1  6  0  0  0
 61 64  1  0  0  0  0
 62 68  1  0  0  0  0
 63 46  1  1  0  0  0
 51 64  1  0  0  0  0
 65 52  1  0  0  0  0
 66 61  1  0  0  0  0
 67 53  1  0  0  0  0
 68114  1  0  0  0  0
 69 50  1  0  0  0  0
 70 42  1  1  0  0  0
 71 41  1  0  0  0  0
 72 47  1  1  0  0  0
 73 48  1  1  0  0  0
 74 43  1  1  0  0  0
 75 49  1  6  0  0  0
 76 66  1  0  0  0  0
 77 60  1  0  0  0  0
 78 62  1  6  0  0  0
 79119  1  0  0  0  0
 80 61  2  0  0  0  0
 81  2  2  0  0  0  0
 82  5  2  0  0  0  0
 83  4  2  0  0  0  0
 84  6  2  0  0  0  0
 85 11  2  0  0  0  0
 86 12  2  0  0  0  0
 87 10  2  0  0  0  0
 88 15  2  0  0  0  0
 89 13  2  0  0  0  0
 90 14  2  0  0  0  0
 91 19  2  0  0  0  0
 92 17  2  0  0  0  0
 93 18  2  0  0  0  0
 94 16  2  0  0  0  0
 95 20  2  0  0  0  0
 96 23  2  0  0  0  0
 97 25  2  0  0  0  0
 98 22  2  0  0  0  0
 99 24  2  0  0  0  0
100 26  2  0  0  0  0
 57101  1  0  0  0  0
 58102  1  0  0  0  0
103 50  2  0  0  0  0
104 59  2  0  0  0  0
 55105  1  0  0  0  0
 54106  1  0  0  0  0
  1107  1  0  0  0  0
108 65  2  0  0  0  0
109 67  2  0  0  0  0
110 68  2  0  0  0  0
111 77  2  0  0  0  0
112 79  2  0  0  0  0
 63113  1  0  0  0  0
114 69  1  0  0  0  0
 38115  1  0  0  0  0
 37116  1  0  0  0  0
 39117  1  0  0  0  0
118 65  1  0  0  0  0
119113  1  0  0  0  0
120 59  1  0  0  0  0
121 67  1  0  0  0  0
122 79  1  0  0  0  0
123102  1  0  0  0  0
124101  1  0  0  0  0
 29125  1  0  0  0  0
 30126  1  0  0  0  0
 35127  1  0  0  0  0
128136  1  0  0  0  0
129151  1  0  0  0  0
130152  1  0  0  0  0
131153  1  0  0  0  0
132150  1  0  0  0  0
133154  1  0  0  0  0
134149  1  0  0  0  0
107135  1  6  0  0  0
136 77  1  0  0  0  0
137125  1  0  0  0  0
138127  1  0  0  0  0
139126  1  0  0  0  0
140105  1  0  0  0  0
141106  1  0  0  0  0
 70142  1  0  0  0  0
 75143  1  0  0  0  0
 74144  1  0  0  0  0
 73145  1  0  0  0  0
 72146  1  0  0  0  0
 78147  1  0  0  0  0
 71148  1  1  0  0  0
149173  1  0  0  0  0
150176  1  0  0  0  0
151172  1  0  0  0  0
152174  1  0  0  0  0
153177  1  0  0  0  0
154175  1  0  0  0  0
117155  1  0  0  0  0
107156  1  0  0  0  0
157116  1  0  0  0  0
158116  1  0  0  0  0
159115  1  0  0  0  0
160115  1  0  0  0  0
117161  1  1  0  0  0
162123  2  0  0  0  0
163124  2  0  0  0  0
164123  1  0  0  0  0
165124  1  0  0  0  0
166145  1  0  0  0  0
167142  1  0  0  0  0
168147  1  0  0  0  0
169143  1  0  0  0  0
170144  1  0  0  0  0
171146  1  0  0  0  0
172168  1  0  0  0  0
173169  1  0  0  0  0
174167  1  0  0  0  0
175171  1  0  0  0  0
176170  1  0  0  0  0
177166  1  0  0  0  0
178141  1  0  0  0  0
179140  1  0  0  0  0
180140  1  0  0  0  0
181141  1  0  0  0  0
182155  1  0  0  0  0
183163  1  0  0  0  0
184164  2  0  0  0  0
185162  1  0  0  0  0
186165  2  0  0  0  0
187183  2  0  0  0  0
188184  1  0  0  0  0
 56 76  2  0  0  0  0
186187  1  0  0  0  0
185188  2  0  0  0  0
M  END
> <From>
www.bindingDB.org

> <BindingDB Reactant_set_id>
51016955

> <Ligand InChI>
InChI=1S/C121H201N33O34/c1-13-68(10)98(153-108(174)79(41-25-31-49-127)141-118(184)97(67(8)9)151-106(172)77(39-23-29-47-125)137-102(168)74(36-20-26-44-122)134-93(161)59-131-101(167)88(60-155)148-116(182)90(62-157)150-120(186)99(70(12)158)154-114(180)84(54-73-58-130-63-132-73)144-111(177)83(135-92(160)57-128)52-71-32-16-14-17-33-71)119(185)133-69(11)100(166)136-75(37-21-27-45-123)103(169)139-80(42-43-94(162)163)105(171)149-89(61-156)115(181)143-81(50-64(2)3)109(175)146-86(56-95(164)165)113(179)138-78(40-24-30-48-126)107(173)152-96(66(6)7)117(183)140-76(38-22-28-46-124)104(170)145-85(55-91(129)159)112(178)142-82(51-65(4)5)110(176)147-87(121(187)188)53-72-34-18-15-19-35-72/h14-19,32-35,58,63-70,74-90,96-99,155-158H,13,20-31,36-57,59-62,122-128H2,1-12H3,(H2,129,159)(H,130,132)(H,131,167)(H,133,185)(H,134,161)(H,135,160)(H,136,166)(H,137,168)(H,138,179)(H,139,169)(H,140,183)(H,141,184)(H,142,178)(H,143,181)(H,144,177)(H,145,170)(H,146,175)(H,147,176)(H,148,182)(H,149,171)(H,150,186)(H,151,172)(H,152,173)(H,153,174)(H,154,180)(H,162,163)(H,164,165)(H,187,188)/t68-,69-,70+,74-,75-,76-,77-,78-,79-,80-,81-,82-,83-,84-,85-,86-,87-,88-,89-,90-,96-,97-,98-,99-/m0/s1

> <Ligand InChI Key>
QDABHLQCDMOFIR-LNCJGMMUSA-N

> <BindingDB MonomerID>
50416567

> <BindingDB Ligand Name>
CHEMBL1215816

> <Target Name>
DNA repair protein RAD51 homolog 1

> <Target Source Organism According to Curator or DataSource>
Homo sapiens

> <Ki (nM)>


> <IC50 (nM)>
>40000

> <Kd (nM)>


> <EC50 (nM)>


> <kon (M-1-s-1)>


> <koff (s-1)>


> <pH>


> <Temp C>


> <Curation/DataSource>
ChEMBL

> <Article DOI>
10.1021/jm1002974

> <BindingDB Entry DOI>
10.7270/Q2NG4RV5

> <PMID>
20684611

> <PubChem AID>


> <Patent Number>


> <Authors>
Nomme, J; Renodon-Corniere, A; Asanomi, Y; Sakaguchi, K; Stasiak, AZ; Stasiak, A; Norden, B; Tran, V; Takahashi, M

> <Date of publication>
8/5/2010

> <Date in BindingDB>
5/22/2013

> <Institution>
Centre National de la Recherche Scientifique & Universite de Nantes

> <Link to Ligand in BindingDB>
http://www.bindingdb.org/bind/chemsearch/marvin/MolStructure.jsp?monomerid=50416567

> <Link to Ligand-Target Pair in BindingDB>
http://www.bindingdb.org/jsp/dbsearch/PrimarySearch_ki.jsp?energyterm=kJ/mole&tag=pol&polymerid=4676&target=DNA+repair+protein+RAD51+homolog+1&column=ki&startPg=0&Increment=50&submit=Search

> <Link to Ligand-Target Pair in BindingDB>
http://www.bindingdb.org/jsp/dbsearch/PrimarySearch_ki.jsp?energyterm=kJ/mole&tag=r21&monomerid=50416567&enzyme=DNA+repair+protein+RAD51+homolog+1&column=ki&startPg=0&Increment=50&submit=Search

> <Ligand HET ID in PDB>


> <PDB ID(s) for Ligand-Target Complex>


> <PubChem CID of Ligand>
49864244

> <PubChem SID of Ligand>
163365591

> <ChEBI ID of Ligand>


> <ChEMBL ID of Ligand>
CHEMBL1215816

> <DrugBank ID of Ligand>


> <IUPHAR_GRAC ID of Ligand>


> <KEGG ID of Ligand>


> <ZINC ID of Ligand>


> <Number of Protein Chains in Target (bigger than 1 implies a multichain complex)>
1

> <BindingDB Target Chain Sequence>
MAMQMQLEANADTSVEEESFGPQPISRLEQCGINANDVKKLEEAGFHTVEAVAYAPKKELINIKGISEAKADKILAEAAKLVPMGFTTATEFHQRRSEIIQITTGSKELDKLLQGGIETGSITEMFGEFRTGKTQICHTLAVTCQLPIDRGGGEGKAMYIDTEGTFRPERLLAVAERYGLSGSDVLDNVAYARAFNTDHQTQLLYQASAMMVESRYALLIVDSATALYRTDYSGRGELSARQMHLARFLRMLLRLADEFGVAVVITNQVVAQVDGAAMFAADPKKPIGGNIIAHASTTRLYLRKGRGETRICKIYDSPCLPEAEAMFAINADGVGDAKD

> <PDB ID(s) of Target Chain>
1N0W,5JZC,5NP7,5NWL,8BQ2,8BR2,8BSC

> <UniProt (SwissProt) Recommended Name of Target Chain>
DNA repair protein RAD51 homolog 1

> <UniProt (SwissProt) Entry Name of Target Chain>
RAD51_HUMAN

> <UniProt (SwissProt) Primary ID of Target Chain>
Q06609

> <UniProt (SwissProt) Secondary ID(s) of Target Chain>
B0FXP0 B2R8T6 Q6FHX9 Q6ZNA8 Q9BV60

> <UniProt (SwissProt) Alternative ID(s) of Target Chain>


> <UniProt (TrEMBL) Submitted Name of Target Chain>


> <UniProt (TrEMBL) Entry Name of Target Chain>


> <UniProt (TrEMBL) Primary ID of Target Chain>


> <UniProt (TrEMBL) Secondary ID(s) of Target Chain>


> <UniProt (TrEMBL) Alternative ID(s) of Target Chain>


$$$$

  Mrv0541 11241415252D          

188190  0  0  0  0            999 V2000
    1.3667  -10.3417    0.0000 C   0  0  1  0  0  0  0  0  0  0  0  0
    2.0958   -9.9250    0.0000 C   0  0  0  0  0  0  0  0  0  0  0  0
    0.6625   -9.9333    0.0000 N   0  0  0  0  0  0  0  0  0  0  0  0
   19.3125   -9.8000    0.0000 C   0  0  0  0  0  0  0  0  0  0  0  0
   15.0083   -9.8292    0.0000 C   0  0  0  0  0  0  0  0  0  0  0  0
   36.5333   -9.6750    0.0000 C   0  0  0  0  0  0  0  0  0  0  0  0
   13.5708   -9.8417    0.0000 N   0  0  0  0  0  0  0  0  0  0  0  0
   35.0958   -9.6833    0.0000 N   0  0  0  0  0  0  0  0  0  0  0  0
   17.8792   -9.8083    0.0000 N   0  0  0  0  0  0  0  0  0  0  0  0
   -0.0667  -10.3542    0.0000 C   0  0  0  0  0  0  0  0  0  0  0  0
   27.9208   -9.7375    0.0000 C   0  0  0  0  0  0  0  0  0  0  0  0
   21.4542  -10.1958    0.0000 C   0  0  0  0  0  0  0  0  0  0  0  0
   34.3708  -10.1042    0.0000 C   0  0  0  0  0  0  0  0  0  0  0  0
   12.8458  -10.2583    0.0000 C   0  0  0  0  0  0  0  0  0  0  0  0
   17.1542  -10.2292    0.0000 C   0  0  0  0  0  0  0  0  0  0  0  0
   40.8333   -9.6417    0.0000 C   0  0  0  0  0  0  0  0  0  0  0  0
   32.2250   -9.7042    0.0000 C   0  0  0  0  0  0  0  0  0  0  0  0
   30.0625  -10.1333    0.0000 C   0  0  0  0  0  0  0  0  0  0  0  0
   42.9750  -10.0417    0.0000 C   0  0  0  0  0  0  0  0  0  0  0  0
   -2.2125   -9.9542    0.0000 C   0  0  0  0  0  0  0  0  0  0  0  0
   20.0208  -10.2083    0.0000 N   0  0  0  0  0  0  0  0  0  0  0  0
   25.7625  -10.1667    0.0000 C   0  0  0  0  0  0  0  0  0  0  0  0
    4.2375  -10.3208    0.0000 C   0  0  0  0  0  0  0  0  0  0  0  0
   38.6750  -10.0708    0.0000 C   0  0  0  0  0  0  0  0  0  0  0  0
   23.6167   -9.7667    0.0000 C   0  0  0  0  0  0  0  0  0  0  0  0
   10.7042   -9.8625    0.0000 C   0  0  0  0  0  0  0  0  0  0  0  0
   26.4875   -9.7458    0.0000 N   0  0  0  0  0  0  0  0  0  0  0  0
    4.9625   -9.9042    0.0000 N   0  0  0  0  0  0  0  0  0  0  0  0
   20.7458   -9.7875    0.0000 C   0  0  1  0  0  0  0  0  0  0  0  0
   27.1958  -10.1542    0.0000 C   0  0  1  0  0  0  0  0  0  0  0  0
   30.7917   -9.7167    0.0000 N   0  0  0  0  0  0  0  0  0  0  0  0
   28.6292  -10.1458    0.0000 N   0  0  0  0  0  0  0  0  0  0  0  0
   39.4000   -9.6542    0.0000 N   0  0  0  0  0  0  0  0  0  0  0  0
   -1.5000  -10.3625    0.0000 N   0  0  0  0  0  0  0  0  0  0  0  0
    2.8042  -10.3333    0.0000 N   0  0  0  0  0  0  0  0  0  0  0  0
    5.6708  -10.3125    0.0000 C   0  0  2  0  0  0  0  0  0  0  0  0
   41.5417  -10.0500    0.0000 N   0  0  0  0  0  0  0  0  0  0  0  0
   14.2792  -10.2500    0.0000 C   0  0  1  0  0  0  0  0  0  0  0  0
   35.8042  -10.0917    0.0000 C   0  0  1  0  0  0  0  0  0  0  0  0
   18.5875  -10.2167    0.0000 C   0  0  1  0  0  0  0  0  0  0  0  0
   43.7083   -9.6208    0.0000 N   0  0  0  0  0  0  0  0  0  0  0  0
   15.7125  -10.2375    0.0000 N   0  0  0  0  0  0  0  0  0  0  0  0
   37.2417  -10.0833    0.0000 N   0  0  0  0  0  0  0  0  0  0  0  0
   31.5000  -10.1250    0.0000 C   0  0  1  0  0  0  0  0  0  0  0  0
   40.1083  -10.0625    0.0000 C   0  0  1  0  0  0  0  0  0  0  0  0
   22.1833   -9.7792    0.0000 N   0  0  0  0  0  0  0  0  0  0  0  0
   24.3292  -10.1750    0.0000 N   0  0  0  0  0  0  0  0  0  0  0  0
   32.9333  -10.1125    0.0000 N   0  0  0  0  0  0  0  0  0  0  0  0
   11.4125  -10.2708    0.0000 N   0  0  0  0  0  0  0  0  0  0  0  0
    6.3958   -9.8917    0.0000 C   0  0  0  0  0  0  0  0  0  0  0  0
   -0.7750   -9.9458    0.0000 C   0  0  1  0  0  0  0  0  0  0  0  0
   40.1083  -10.8792    0.0000 C   0  0  0  0  0  0  0  0  0  0  0  0
   31.5000  -10.9417    0.0000 C   0  0  0  0  0  0  0  0  0  0  0  0
   29.3583   -9.7250    0.0000 C   0  0  1  0  0  0  0  0  0  0  0  0
   42.2667   -9.6333    0.0000 C   0  0  1  0  0  0  0  0  0  0  0  0
    1.2000   -8.2833    0.0000 N   0  0  0  0  0  0  0  0  0  0  0  0
   -2.9333  -10.3667    0.0000 C   0  0  1  0  0  0  0  0  0  0  0  0
   44.4167  -10.0292    0.0000 C   0  0  2  0  0  0  0  0  0  0  0  0
   45.1417   -9.6125    0.0000 C   0  0  0  0  0  0  0  0  0  0  0  0
   -3.6458   -9.9583    0.0000 N   0  0  0  0  0  0  0  0  0  0  0  0
   -0.0667   -8.6958    0.0000 C   0  0  0  0  0  0  0  0  0  0  0  0
    9.2708   -9.8708    0.0000 N   0  0  0  0  0  0  0  0  0  0  0  0
   25.0542   -9.7583    0.0000 C   0  0  1  0  0  0  0  0  0  0  0  0
   -0.7750   -9.1083    0.0000 C   0  0  0  0  0  0  0  0  0  0  0  0
   40.8333  -11.3000    0.0000 C   0  0  0  0  0  0  0  0  0  0  0  0
   -0.0667   -7.8583    0.0000 N   0  0  0  0  0  0  0  0  0  0  0  0
   32.2250  -11.3583    0.0000 C   0  0  0  0  0  0  0  0  0  0  0  0
    8.5417  -10.2917    0.0000 C   0  0  0  0  0  0  0  0  0  0  0  0
    7.1083  -10.3000    0.0000 N   0  0  0  0  0  0  0  0  0  0  0  0
   16.4458   -9.8208    0.0000 C   0  0  1  0  0  0  0  0  0  0  0  0
    3.5292   -9.9125    0.0000 C   0  0  1  0  0  0  0  0  0  0  0  0
   33.6583   -9.6958    0.0000 C   0  0  1  0  0  0  0  0  0  0  0  0
   12.1375   -9.8500    0.0000 C   0  0  1  0  0  0  0  0  0  0  0  0
   37.9667   -9.6625    0.0000 C   0  0  1  0  0  0  0  0  0  0  0  0
   22.8875  -10.1875    0.0000 C   0  0  1  0  0  0  0  0  0  0  0  0
    0.7167   -7.6083    0.0000 C   0  0  0  0  0  0  0  0  0  0  0  0
   -4.3667  -10.3708    0.0000 C   0  0  0  0  0  0  0  0  0  0  0  0
    9.9792  -10.2792    0.0000 C   0  0  1  0  0  0  0  0  0  0  0  0
   25.7625   -7.6667    0.0000 C   0  0  0  0  0  0  0  0  0  0  0  0
    0.7125   -8.9458    0.0000 C   0  0  0  0  0  0  0  0  0  0  0  0
    2.0958   -9.0875    0.0000 O   0  0  0  0  0  0  0  0  0  0  0  0
   19.3125   -8.9583    0.0000 O   0  0  0  0  0  0  0  0  0  0  0  0
   15.0083   -8.9917    0.0000 O   0  0  0  0  0  0  0  0  0  0  0  0
   36.5333   -8.8333    0.0000 O   0  0  0  0  0  0  0  0  0  0  0  0
   21.4542  -11.0125    0.0000 O   0  0  0  0  0  0  0  0  0  0  0  0
   27.9208   -8.9000    0.0000 O   0  0  0  0  0  0  0  0  0  0  0  0
   -0.0667  -11.1708    0.0000 O   0  0  0  0  0  0  0  0  0  0  0  0
   17.1542  -11.0458    0.0000 O   0  0  0  0  0  0  0  0  0  0  0  0
   34.3708  -10.9208    0.0000 O   0  0  0  0  0  0  0  0  0  0  0  0
   12.8458  -11.0750    0.0000 O   0  0  0  0  0  0  0  0  0  0  0  0
   42.9750  -10.8583    0.0000 O   0  0  0  0  0  0  0  0  0  0  0  0
   32.2250   -8.8667    0.0000 O   0  0  0  0  0  0  0  0  0  0  0  0
   30.0625  -10.9500    0.0000 O   0  0  0  0  0  0  0  0  0  0  0  0
   40.8333   -8.8042    0.0000 O   0  0  0  0  0  0  0  0  0  0  0  0
   -2.2125   -9.1167    0.0000 O   0  0  0  0  0  0  0  0  0  0  0  0
   38.6750  -10.8875    0.0000 O   0  0  0  0  0  0  0  0  0  0  0  0
   23.6167   -8.9292    0.0000 O   0  0  0  0  0  0  0  0  0  0  0  0
   25.7625  -10.9833    0.0000 O   0  0  0  0  0  0  0  0  0  0  0  0
   10.7042   -9.0250    0.0000 O   0  0  0  0  0  0  0  0  0  0  0  0
    4.2375  -11.1375    0.0000 O   0  0  0  0  0  0  0  0  0  0  0  0
   -2.9333  -11.1917    0.0000 C   0  0  0  0  0  0  0  0  0  0  0  0
   44.4167  -10.8458    0.0000 C   0  0  0  0  0  0  0  0  0  0  0  0
    6.3958   -9.0542    0.0000 O   0  0  0  0  0  0  0  0  0  0  0  0
   45.1417   -8.7708    0.0000 O   0  0  0  0  0  0  0  0  0  0  0  0
   42.2667   -8.7958    0.0000 C   0  0  0  0  0  0  0  0  0  0  0  0
   29.3583   -8.8875    0.0000 C   0  0  0  0  0  0  0  0  0  0  0  0
    1.3667  -11.1583    0.0000 C   0  0  2  0  0  0  0  0  0  0  0  0
   40.8333  -12.1208    0.0000 O   0  0  0  0  0  0  0  0  0  0  0  0
   32.2250  -12.1792    0.0000 O   0  0  0  0  0  0  0  0  0  0  0  0
    8.5417  -11.1083    0.0000 O   0  0  0  0  0  0  0  0  0  0  0  0
   -4.3667  -11.2000    0.0000 O   0  0  0  0  0  0  0  0  0  0  0  0
   26.4708   -7.2583    0.0000 O   0  0  0  0  0  0  0  0  0  0  0  0
   25.0542   -8.9167    0.0000 C   0  0  0  0  0  0  0  0  0  0  0  0
    7.8375   -9.8833    0.0000 C   0  0  0  0  0  0  0  0  0  0  0  0
   35.8042  -10.9083    0.0000 C   0  0  0  0  0  0  0  0  0  0  0  0
   14.2792  -11.0667    0.0000 C   0  0  0  0  0  0  0  0  0  0  0  0
   18.5875  -11.0333    0.0000 C   0  0  2  0  0  0  0  0  0  0  0  0
   41.5625  -10.8792    0.0000 N   0  0  0  0  0  0  0  0  0  0  0  0
   25.7625   -8.5083    0.0000 C   0  0  0  0  0  0  0  0  0  0  0  0
   45.8500  -10.0208    0.0000 O   0  0  0  0  0  0  0  0  0  0  0  0
   32.9500  -10.9417    0.0000 O   0  0  0  0  0  0  0  0  0  0  0  0
   25.0375   -7.2500    0.0000 O   0  0  0  0  0  0  0  0  0  0  0  0
   45.1417  -11.2708    0.0000 C   0  0  0  0  0  0  0  0  0  0  0  0
   -2.2083  -11.6083    0.0000 C   0  0  0  0  0  0  0  0  0  0  0  0
   20.7458   -8.9500    0.0000 C   0  0  0  0  0  0  0  0  0  0  0  0
   27.1958  -10.9708    0.0000 C   0  0  0  0  0  0  0  0  0  0  0  0
    5.6708  -11.1292    0.0000 C   0  0  0  0  0  0  0  0  0  0  0  0
   -5.8042  -10.3792    0.0000 N   0  0  0  0  0  0  0  0  0  0  0  0
   17.8625   -6.4833    0.0000 N   0  0  0  0  0  0  0  0  0  0  0  0
   13.5542   -6.5167    0.0000 N   0  0  0  0  0  0  0  0  0  0  0  0
   11.4292  -13.5750    0.0000 N   0  0  0  0  0  0  0  0  0  0  0  0
   39.3833   -6.3292    0.0000 N   0  0  0  0  0  0  0  0  0  0  0  0
   35.0792   -6.3583    0.0000 N   0  0  0  0  0  0  0  0  0  0  0  0
   24.3417  -13.4792    0.0000 N   0  0  0  0  0  0  0  0  0  0  0  0
    2.0958  -11.5792    0.0000 O   0  0  0  0  0  0  0  0  0  0  0  0
   -5.0833   -9.9583    0.0000 C   0  0  0  0  0  0  0  0  0  0  0  0
   21.4542   -8.5417    0.0000 O   0  0  0  0  0  0  0  0  0  0  0  0
    6.3958  -11.5500    0.0000 O   0  0  0  0  0  0  0  0  0  0  0  0
   27.9208  -11.3917    0.0000 O   0  0  0  0  0  0  0  0  0  0  0  0
   42.9750   -8.3875    0.0000 C   0  0  0  0  0  0  0  0  0  0  0  0
   30.0625   -8.4792    0.0000 C   0  0  0  0  0  0  0  0  0  0  0  0
   16.4458   -8.9833    0.0000 C   0  0  0  0  0  0  0  0  0  0  0  0
   22.8875  -11.0042    0.0000 C   0  0  0  0  0  0  0  0  0  0  0  0
   37.9667   -8.8250    0.0000 C   0  0  0  0  0  0  0  0  0  0  0  0
   12.1375   -9.0125    0.0000 C   0  0  0  0  0  0  0  0  0  0  0  0
   33.6583   -8.8583    0.0000 C   0  0  0  0  0  0  0  0  0  0  0  0
    9.9792  -11.0958    0.0000 C   0  0  0  0  0  0  0  0  0  0  0  0
    3.5292   -9.0750    0.0000 C   0  0  0  0  0  0  0  0  0  0  0  0
   24.3417  -12.6625    0.0000 C   0  0  0  0  0  0  0  0  0  0  0  0
   39.3833   -7.1667    0.0000 C   0  0  0  0  0  0  0  0  0  0  0  0
   17.8625   -7.3208    0.0000 C   0  0  0  0  0  0  0  0  0  0  0  0
   13.5542   -7.3542    0.0000 C   0  0  0  0  0  0  0  0  0  0  0  0
   11.4292  -12.7583    0.0000 C   0  0  0  0  0  0  0  0  0  0  0  0
   35.0792   -7.1958    0.0000 C   0  0  0  0  0  0  0  0  0  0  0  0
   17.8792  -11.4417    0.0000 C   0  0  0  0  0  0  0  0  0  0  0  0
    0.6625  -11.5667    0.0000 C   0  0  0  0  0  0  0  0  0  0  0  0
   13.5708  -11.4750    0.0000 C   0  0  0  0  0  0  0  0  0  0  0  0
   15.0083  -11.4833    0.0000 C   0  0  0  0  0  0  0  0  0  0  0  0
   36.5333  -11.3333    0.0000 C   0  0  0  0  0  0  0  0  0  0  0  0
   35.0958  -11.3208    0.0000 C   0  0  0  0  0  0  0  0  0  0  0  0
   19.3125  -11.4542    0.0000 C   0  0  0  0  0  0  0  0  0  0  0  0
   45.1500  -12.0833    0.0000 C   0  0  0  0  0  0  0  0  0  0  0  0
   -1.4875  -11.1833    0.0000 C   0  0  0  0  0  0  0  0  0  0  0  0
   45.8583  -10.8417    0.0000 C   0  0  0  0  0  0  0  0  0  0  0  0
   -2.1958  -12.4292    0.0000 C   0  0  0  0  0  0  0  0  0  0  0  0
   17.1542   -8.5750    0.0000 C   0  0  0  0  0  0  0  0  0  0  0  0
   10.7042  -11.5167    0.0000 C   0  0  0  0  0  0  0  0  0  0  0  0
   12.8458   -8.6042    0.0000 C   0  0  0  0  0  0  0  0  0  0  0  0
   23.6167  -11.4208    0.0000 C   0  0  0  0  0  0  0  0  0  0  0  0
   38.6750   -8.4167    0.0000 C   0  0  0  0  0  0  0  0  0  0  0  0
   34.3708   -8.4458    0.0000 C   0  0  0  0  0  0  0  0  0  0  0  0
   17.1542   -7.7375    0.0000 C   0  0  0  0  0  0  0  0  0  0  0  0
   23.6167  -12.2458    0.0000 C   0  0  0  0  0  0  0  0  0  0  0  0
   12.8458   -7.7625    0.0000 C   0  0  0  0  0  0  0  0  0  0  0  0
   34.3708   -7.6083    0.0000 C   0  0  0  0  0  0  0  0  0  0  0  0
   38.6750   -7.5792    0.0000 C   0  0  0  0  0  0  0  0  0  0  0  0
   10.7042  -12.3375    0.0000 C   0  0  0  0  0  0  0  0  0  0  0  0
   30.0625   -7.6417    0.0000 C   0  0  0  0  0  0  0  0  0  0  0  0
   42.9750   -7.5458    0.0000 C   0  0  0  0  0  0  0  0  0  0  0  0
   43.6875   -8.7958    0.0000 C   0  0  0  0  0  0  0  0  0  0  0  0
   30.7750   -8.8875    0.0000 C   0  0  0  0  0  0  0  0  0  0  0  0
   17.8792  -12.2875    0.0000 C   0  0  0  0  0  0  0  0  0  0  0  0
   -0.7708  -11.5917    0.0000 C   0  0  0  0  0  0  0  0  0  0  0  0
   46.5792  -11.2500    0.0000 C   0  0  0  0  0  0  0  0  0  0  0  0
   45.8708  -12.4917    0.0000 C   0  0  0  0  0  0  0  0  0  0  0  0
   -1.4792  -12.8333    0.0000 C   0  0  0  0  0  0  0  0  0  0  0  0
   -0.7667  -12.4167    0.0000 C   0  0  0  0  0  0  0  0  0  0  0  0
   46.5833  -12.0750    0.0000 C   0  0  0  0  0  0  0  0  0  0  0  0
  1  2  1  0  0  0  0
  1  3  1  6  0  0  0
 40  4  1  0  0  0  0
 38  5  1  0  0  0  0
 39  6  1  0  0  0  0
  7 14  1  0  0  0  0
  8 13  1  0  0  0  0
  9 15  1  0  0  0  0
 10  3  1  0  0  0  0
 30 11  1  0  0  0  0
 29 12  1  0  0  0  0
 72 13  1  0  0  0  0
 73 14  1  0  0  0  0
 70 15  1  0  0  0  0
 45 16  1  0  0  0  0
 44 17  1  0  0  0  0
 54 18  1  0  0  0  0
 55 19  1  0  0  0  0
 20 34  1  0  0  0  0
 21  4  1  0  0  0  0
 63 22  1  0  0  0  0
 71 23  1  0  0  0  0
 74 24  1  0  0  0  0
 75 25  1  0  0  0  0
 78 26  1  0  0  0  0
 27 22  1  0  0  0  0
 28 23  1  0  0  0  0
 29 21  1  1  0  0  0
 30 27  1  6  0  0  0
 31 18  1  0  0  0  0
 32 11  1  0  0  0  0
 33 24  1  0  0  0  0
 51 34  1  1  0  0  0
 35  2  1  0  0  0  0
 36 28  1  6  0  0  0
 37 16  1  0  0  0  0
 38  7  1  6  0  0  0
 39  8  1  6  0  0  0
 40  9  1  6  0  0  0
 41 19  1  0  0  0  0
 42  5  1  0  0  0  0
 43  6  1  0  0  0  0
 44 31  1  6  0  0  0
 45 33  1  6  0  0  0
 46 12  1  0  0  0  0
 47 25  1  0  0  0  0
 48 17  1  0  0  0  0
 49 26  1  0  0  0  0
 36 50  1  0  0  0  0
 51 10  1  0  0  0  0
 45 52  1  0  0  0  0
 44 53  1  0  0  0  0
 54 32  1  1  0  0  0
 55 37  1  1  0  0  0
 56 80  1  0  0  0  0
 57 20  1  0  0  0  0
 58 41  1  6  0  0  0
 58 59  1  0  0  0  0
 57 60  1  6  0  0  0
 61 64  1  0  0  0  0
 62 68  1  0  0  0  0
 63 47  1  1  0  0  0
 51 64  1  0  0  0  0
 65 52  1  0  0  0  0
 66 61  1  0  0  0  0
 67 53  1  0  0  0  0
 68114  1  0  0  0  0
 69 50  1  0  0  0  0
 70 42  1  1  0  0  0
 71 35  1  0  0  0  0
 72 48  1  1  0  0  0
 73 49  1  1  0  0  0
 74 43  1  1  0  0  0
 75 46  1  6  0  0  0
 76 66  1  0  0  0  0
 77 60  1  0  0  0  0
 78 62  1  6  0  0  0
 79119  1  0  0  0  0
 80 61  2  0  0  0  0
 81  2  2  0  0  0  0
 82  4  2  0  0  0  0
 83  5  2  0  0  0  0
 84  6  2  0  0  0  0
 85 12  2  0  0  0  0
 86 11  2  0  0  0  0
 87 10  2  0  0  0  0
 88 15  2  0  0  0  0
 89 13  2  0  0  0  0
 90 14  2  0  0  0  0
 91 19  2  0  0  0  0
 92 17  2  0  0  0  0
 93 18  2  0  0  0  0
 94 16  2  0  0  0  0
 95 20  2  0  0  0  0
 96 24  2  0  0  0  0
 97 25  2  0  0  0  0
 98 22  2  0  0  0  0
 99 26  2  0  0  0  0
100 23  2  0  0  0  0
 57101  1  0  0  0  0
 58102  1  0  0  0  0
103 50  2  0  0  0  0
104 59  2  0  0  0  0
 55105  1  0  0  0  0
 54106  1  0  0  0  0
  1107  1  0  0  0  0
108 65  2  0  0  0  0
109 67  2  0  0  0  0
110 68  2  0  0  0  0
111 77  2  0  0  0  0
112 79  2  0  0  0  0
 63113  1  0  0  0  0
114 69  1  0  0  0  0
 39115  1  0  0  0  0
 38116  1  0  0  0  0
 40117  1  0  0  0  0
118 65  1  0  0  0  0
119113  1  0  0  0  0
120 59  1  0  0  0  0
121 67  1  0  0  0  0
122 79  1  0  0  0  0
123102  1  0  0  0  0
124101  1  0  0  0  0
 29125  1  0  0  0  0
 30126  1  0  0  0  0
 36127  1  0  0  0  0
128136  1  0  0  0  0
129151  1  0  0  0  0
130152  1  0  0  0  0
131153  1  0  0  0  0
132150  1  0  0  0  0
133154  1  0  0  0  0
134149  1  0  0  0  0
107135  1  6  0  0  0
136 77  1  0  0  0  0
137125  1  0  0  0  0
138127  1  0  0  0  0
139126  1  0  0  0  0
140105  1  0  0  0  0
141106  1  0  0  0  0
 70142  1  0  0  0  0
 75143  1  0  0  0  0
 74144  1  0  0  0  0
 73145  1  0  0  0  0
 72146  1  0  0  0  0
 78147  1  0  0  0  0
 71148  1  1  0  0  0
149173  1  0  0  0  0
150176  1  0  0  0  0
151172  1  0  0  0  0
152174  1  0  0  0  0
153177  1  0  0  0  0
154175  1  0  0  0  0
117155  1  0  0  0  0
107156  1  0  0  0  0
157116  1  0  0  0  0
158116  1  0  0  0  0
159115  1  0  0  0  0
160115  1  0  0  0  0
117161  1  1  0  0  0
162123  2  0  0  0  0
163124  2  0  0  0  0
164123  1  0  0  0  0
165124  1  0  0  0  0
166142  1  0  0  0  0
167147  1  0  0  0  0
168145  1  0  0  0  0
169143  1  0  0  0  0
170144  1  0  0  0  0
171146  1  0  0  0  0
172166  1  0  0  0  0
173169  1  0  0  0  0
174168  1  0  0  0  0
175171  1  0  0  0  0
176170  1  0  0  0  0
177167  1  0  0  0  0
178141  1  0  0  0  0
179140  1  0  0  0  0
180140  1  0  0  0  0
181141  1  0  0  0  0
182155  1  0  0  0  0
183163  1  0  0  0  0
184164  2  0  0  0  0
185162  1  0  0  0  0
186165  2  0  0  0  0
187183  2  0  0  0  0
188184  1  0  0  0  0
 56 76  2  0  0  0  0
186187  1  0  0  0  0
185188  2  0  0  0  0
M  END
> <From>
www.bindingDB.org

> <BindingDB Reactant_set_id>
51016956

> <Ligand InChI>
InChI=1S/C121H201N33O34/c1-13-68(10)98(153-108(174)79(41-25-31-49-127)141-118(184)97(67(8)9)151-106(172)77(39-23-29-47-125)136-102(168)74(36-20-26-44-122)134-93(161)59-131-101(167)88(60-155)148-100(166)69(11)133-120(186)99(70(12)158)154-114(180)84(54-73-58-130-63-132-73)144-111(177)83(135-92(160)57-128)52-71-32-16-14-17-33-71)119(185)150-90(62-157)115(181)138-75(37-21-27-45-123)103(169)139-80(42-43-94(162)163)105(171)149-89(61-156)116(182)143-81(50-64(2)3)109(175)146-86(56-95(164)165)113(179)137-78(40-24-30-48-126)107(173)152-96(66(6)7)117(183)140-76(38-22-28-46-124)104(170)145-85(55-91(129)159)112(178)142-82(51-65(4)5)110(176)147-87(121(187)188)53-72-34-18-15-19-35-72/h14-19,32-35,58,63-70,74-90,96-99,155-158H,13,20-31,36-57,59-62,122-128H2,1-12H3,(H2,129,159)(H,130,132)(H,131,167)(H,133,186)(H,134,161)(H,135,160)(H,136,168)(H,137,179)(H,138,181)(H,139,169)(H,140,183)(H,141,184)(H,142,178)(H,143,182)(H,144,177)(H,145,170)(H,146,175)(H,147,176)(H,148,166)(H,149,171)(H,150,185)(H,151,172)(H,152,173)(H,153,174)(H,154,180)(H,162,163)(H,164,165)(H,187,188)/t68-,69-,70+,74-,75-,76-,77-,78-,79-,80-,81-,82-,83-,84-,85-,86-,87-,88-,89-,90-,96-,97-,98-,99-/m0/s1

> <Ligand InChI Key>
DAPJDQIJUHWVCP-LNCJGMMUSA-N

> <BindingDB MonomerID>
50416568

> <BindingDB Ligand Name>
CHEMBL1215817

> <Target Name>
DNA repair protein RAD51 homolog 1

> <Target Source Organism According to Curator or DataSource>
Homo sapiens

> <Ki (nM)>


> <IC50 (nM)>
 2500

> <Kd (nM)>


> <EC50 (nM)>


> <kon (M-1-s-1)>


> <koff (s-1)>


> <pH>


> <Temp C>


> <Curation/DataSource>
ChEMBL

> <Article DOI>
10.1021/jm1002974

> <BindingDB Entry DOI>
10.7270/Q2NG4RV5

> <PMID>
20684611

> <PubChem AID>


> <Patent Number>


> <Authors>
Nomme, J; Renodon-Corniere, A; Asanomi, Y; Sakaguchi, K; Stasiak, AZ; Stasiak, A; Norden, B; Tran, V; Takahashi, M

> <Date of publication>
8/5/2010

> <Date in BindingDB>
5/22/2013

> <Institution>
Centre National de la Recherche Scientifique & Universite de Nantes

> <Link to Ligand in BindingDB>
http://www.bindingdb.org/bind/chemsearch/marvin/MolStructure.jsp?monomerid=50416568

> <Link to Ligand-Target Pair in BindingDB>
http://www.bindingdb.org/jsp/dbsearch/PrimarySearch_ki.jsp?energyterm=kJ/mole&tag=pol&polymerid=4676&target=DNA+repair+protein+RAD51+homolog+1&column=ki&startPg=0&Increment=50&submit=Search

> <Link to Ligand-Target Pair in BindingDB>
http://www.bindingdb.org/jsp/dbsearch/PrimarySearch_ki.jsp?energyterm=kJ/mole&tag=r21&monomerid=50416568&enzyme=DNA+repair+protein+RAD51+homolog+1&column=ki&startPg=0&Increment=50&submit=Search

> <Ligand HET ID in PDB>


> <PDB ID(s) for Ligand-Target Complex>


> <PubChem CID of Ligand>
49864245

> <PubChem SID of Ligand>
163365592

> <ChEBI ID of Ligand>


> <ChEMBL ID of Ligand>
CHEMBL1215817

> <DrugBank ID of Ligand>


> <IUPHAR_GRAC ID of Ligand>


> <KEGG ID of Ligand>


> <ZINC ID of Ligand>


> <Number of Protein Chains in Target (bigger than 1 implies a multichain complex)>
1

> <BindingDB Target Chain Sequence>
MAMQMQLEANADTSVEEESFGPQPISRLEQCGINANDVKKLEEAGFHTVEAVAYAPKKELINIKGISEAKADKILAEAAKLVPMGFTTATEFHQRRSEIIQITTGSKELDKLLQGGIETGSITEMFGEFRTGKTQICHTLAVTCQLPIDRGGGEGKAMYIDTEGTFRPERLLAVAERYGLSGSDVLDNVAYARAFNTDHQTQLLYQASAMMVESRYALLIVDSATALYRTDYSGRGELSARQMHLARFLRMLLRLADEFGVAVVITNQVVAQVDGAAMFAADPKKPIGGNIIAHASTTRLYLRKGRGETRICKIYDSPCLPEAEAMFAINADGVGDAKD

> <PDB ID(s) of Target Chain>
1N0W,5JZC,5NP7,5NWL,8BQ2,8BR2,8BSC

> <UniProt (SwissProt) Recommended Name of Target Chain>
DNA repair protein RAD51 homolog 1

> <UniProt (SwissProt) Entry Name of Target Chain>
RAD51_HUMAN

> <UniProt (SwissProt) Primary ID of Target Chain>
Q06609

> <UniProt (SwissProt) Secondary ID(s) of Target Chain>
B0FXP0 B2R8T6 Q6FHX9 Q6ZNA8 Q9BV60

> <UniProt (SwissProt) Alternative ID(s) of Target Chain>


> <UniProt (TrEMBL) Submitted Name of Target Chain>


> <UniProt (TrEMBL) Entry Name of Target Chain>


> <UniProt (TrEMBL) Primary ID of Target Chain>


> <UniProt (TrEMBL) Secondary ID(s) of Target Chain>


> <UniProt (TrEMBL) Alternative ID(s) of Target Chain>


$$$$

  Mrv0541 11241415252D          

190193  0  0  0  0            999 V2000
    1.2004  -18.8263    0.0000 C   0  0  1  0  0  0  0  0  0  0  0  0
    1.9298  -18.4096    0.0000 C   0  0  0  0  0  0  0  0  0  0  0  0
    0.4959  -18.4179    0.0000 N   0  0  0  0  0  0  0  0  0  0  0  0
   14.8336  -18.3137    0.0000 C   0  0  0  0  0  0  0  0  0  0  0  0
   19.1348  -18.2846    0.0000 C   0  0  0  0  0  0  0  0  0  0  0  0
   36.3399  -18.1636    0.0000 C   0  0  0  0  0  0  0  0  0  0  0  0
   13.3956  -18.3262    0.0000 N   0  0  0  0  0  0  0  0  0  0  0  0
   34.9020  -18.1720    0.0000 N   0  0  0  0  0  0  0  0  0  0  0  0
   17.7010  -18.2929    0.0000 N   0  0  0  0  0  0  0  0  0  0  0  0
   -0.2334  -18.8388    0.0000 C   0  0  0  0  0  0  0  0  0  0  0  0
   27.7332  -18.2221    0.0000 C   0  0  0  0  0  0  0  0  0  0  0  0
   34.1768  -18.5930    0.0000 C   0  0  0  0  0  0  0  0  0  0  0  0
   16.9758  -18.7138    0.0000 C   0  0  0  0  0  0  0  0  0  0  0  0
   12.6704  -18.7430    0.0000 C   0  0  0  0  0  0  0  0  0  0  0  0
   40.6412  -18.1303    0.0000 C   0  0  0  0  0  0  0  0  0  0  0  0
   32.0386  -18.1887    0.0000 C   0  0  0  0  0  0  0  0  0  0  0  0
   29.8755  -18.6180    0.0000 C   0  0  0  0  0  0  0  0  0  0  0  0
   42.7793  -18.5305    0.0000 C   0  0  0  0  0  0  0  0  0  0  0  0
   -2.3757  -18.4429    0.0000 C   0  0  0  0  0  0  0  0  0  0  0  0
   25.5783  -18.6555    0.0000 C   0  0  0  0  0  0  0  0  0  0  0  0
    4.0720  -18.8055    0.0000 C   0  0  0  0  0  0  0  0  0  0  0  0
   38.4821  -18.5597    0.0000 C   0  0  0  0  0  0  0  0  0  0  0  0
   21.2730  -18.6805    0.0000 C   0  0  0  0  0  0  0  0  0  0  0  0
   23.4361  -18.2512    0.0000 C   0  0  0  0  0  0  0  0  0  0  0  0
   10.5323  -18.3471    0.0000 C   0  0  0  0  0  0  0  0  0  0  0  0
   26.3035  -18.2304    0.0000 N   0  0  0  0  0  0  0  0  0  0  0  0
    4.7931  -18.3887    0.0000 N   0  0  0  0  0  0  0  0  0  0  0  0
   27.0079  -18.6388    0.0000 C   0  0  1  0  0  0  0  0  0  0  0  0
   30.6048  -18.2054    0.0000 N   0  0  0  0  0  0  0  0  0  0  0  0
   28.4417  -18.6347    0.0000 N   0  0  0  0  0  0  0  0  0  0  0  0
   39.2073  -18.1428    0.0000 N   0  0  0  0  0  0  0  0  0  0  0  0
   -1.6630  -18.8472    0.0000 N   0  0  0  0  0  0  0  0  0  0  0  0
    2.6383  -18.8180    0.0000 N   0  0  0  0  0  0  0  0  0  0  0  0
    5.5016  -18.7972    0.0000 C   0  0  2  0  0  0  0  0  0  0  0  0
   41.3497  -18.5388    0.0000 N   0  0  0  0  0  0  0  0  0  0  0  0
   14.1042  -18.7347    0.0000 C   0  0  1  0  0  0  0  0  0  0  0  0
   35.6105  -18.5805    0.0000 C   0  0  1  0  0  0  0  0  0  0  0  0
   18.4096  -18.7013    0.0000 C   0  0  1  0  0  0  0  0  0  0  0  0
   43.5086  -18.1095    0.0000 N   0  0  0  0  0  0  0  0  0  0  0  0
   19.8391  -18.6930    0.0000 N   0  0  0  0  0  0  0  0  0  0  0  0
   15.5379  -18.7222    0.0000 N   0  0  0  0  0  0  0  0  0  0  0  0
   37.0484  -18.5722    0.0000 N   0  0  0  0  0  0  0  0  0  0  0  0
   31.3134  -18.6138    0.0000 C   0  0  1  0  0  0  0  0  0  0  0  0
   39.9159  -18.5513    0.0000 C   0  0  1  0  0  0  0  0  0  0  0  0
   24.1446  -18.6597    0.0000 N   0  0  0  0  0  0  0  0  0  0  0  0
   32.7471  -18.5972    0.0000 N   0  0  0  0  0  0  0  0  0  0  0  0
   11.2408  -18.7555    0.0000 N   0  0  0  0  0  0  0  0  0  0  0  0
   22.0023  -18.2637    0.0000 N   0  0  0  0  0  0  0  0  0  0  0  0
    6.2268  -18.3762    0.0000 C   0  0  0  0  0  0  0  0  0  0  0  0
   -0.9420  -18.4304    0.0000 C   0  0  1  0  0  0  0  0  0  0  0  0
   39.9159  -19.3682    0.0000 C   0  0  0  0  0  0  0  0  0  0  0  0
   31.3134  -19.4307    0.0000 C   0  0  0  0  0  0  0  0  0  0  0  0
   42.0707  -18.1220    0.0000 C   0  0  1  0  0  0  0  0  0  0  0  0
   29.1711  -18.2096    0.0000 C   0  0  1  0  0  0  0  0  0  0  0  0
    1.0211  -16.7257    0.0000 N   0  0  0  0  0  0  0  0  0  0  0  0
   -3.0926  -18.8555    0.0000 C   0  0  1  0  0  0  0  0  0  0  0  0
   44.2172  -18.5179    0.0000 C   0  0  2  0  0  0  0  0  0  0  0  0
   44.9424  -18.1011    0.0000 C   0  0  0  0  0  0  0  0  0  0  0  0
   -3.8094  -18.4429    0.0000 N   0  0  0  0  0  0  0  0  0  0  0  0
   -0.2334  -17.1843    0.0000 C   0  0  0  0  0  0  0  0  0  0  0  0
    9.0985  -18.3554    0.0000 N   0  0  0  0  0  0  0  0  0  0  0  0
   24.8698  -18.2429    0.0000 C   0  0  1  0  0  0  0  0  0  0  0  0
   -0.9420  -17.5927    0.0000 C   0  0  0  0  0  0  0  0  0  0  0  0
   40.6412  -19.7850    0.0000 C   0  0  0  0  0  0  0  0  0  0  0  0
   -0.2626  -16.3465    0.0000 N   0  0  0  0  0  0  0  0  0  0  0  0
   32.0386  -19.8433    0.0000 C   0  0  0  0  0  0  0  0  0  0  0  0
    8.3692  -18.7763    0.0000 C   0  0  0  0  0  0  0  0  0  0  0  0
    6.9353  -18.7847    0.0000 N   0  0  0  0  0  0  0  0  0  0  0  0
   16.2673  -18.3054    0.0000 C   0  0  1  0  0  0  0  0  0  0  0  0
   20.5644  -18.2721    0.0000 C   0  0  1  0  0  0  0  0  0  0  0  0
    3.3635  -18.3971    0.0000 C   0  0  1  0  0  0  0  0  0  0  0  0
   33.4724  -18.1846    0.0000 C   0  0  1  0  0  0  0  0  0  0  0  0
   11.9660  -18.3346    0.0000 C   0  0  1  0  0  0  0  0  0  0  0  0
   37.7736  -18.1511    0.0000 C   0  0  1  0  0  0  0  0  0  0  0  0
   22.7067  -18.6722    0.0000 C   0  0  1  0  0  0  0  0  0  0  0  0
    0.5127  -16.0672    0.0000 C   0  0  0  0  0  0  0  0  0  0  0  0
   -4.5305  -18.8555    0.0000 C   0  0  0  0  0  0  0  0  0  0  0  0
    9.8071  -18.7638    0.0000 C   0  0  1  0  0  0  0  0  0  0  0  0
   25.5783  -16.1548    0.0000 C   0  0  0  0  0  0  0  0  0  0  0  0
    0.5544  -17.4009    0.0000 C   0  0  0  0  0  0  0  0  0  0  0  0
    1.9298  -17.5719    0.0000 O   0  0  0  0  0  0  0  0  0  0  0  0
   19.1348  -17.4426    0.0000 O   0  0  0  0  0  0  0  0  0  0  0  0
   14.8336  -17.4759    0.0000 O   0  0  0  0  0  0  0  0  0  0  0  0
   36.3399  -17.3176    0.0000 O   0  0  0  0  0  0  0  0  0  0  0  0
   27.7332  -17.3884    0.0000 O   0  0  0  0  0  0  0  0  0  0  0  0
   -0.2334  -19.6558    0.0000 O   0  0  0  0  0  0  0  0  0  0  0  0
   12.6704  -19.5600    0.0000 O   0  0  0  0  0  0  0  0  0  0  0  0
   34.1768  -19.4099    0.0000 O   0  0  0  0  0  0  0  0  0  0  0  0
   16.9758  -19.5307    0.0000 O   0  0  0  0  0  0  0  0  0  0  0  0
   42.7793  -19.3474    0.0000 O   0  0  0  0  0  0  0  0  0  0  0  0
   32.0386  -17.3509    0.0000 O   0  0  0  0  0  0  0  0  0  0  0  0
   29.8755  -19.4349    0.0000 O   0  0  0  0  0  0  0  0  0  0  0  0
   40.6412  -17.2926    0.0000 O   0  0  0  0  0  0  0  0  0  0  0  0
   -2.3757  -17.6010    0.0000 O   0  0  0  0  0  0  0  0  0  0  0  0
   21.2730  -19.4974    0.0000 O   0  0  0  0  0  0  0  0  0  0  0  0
   25.5783  -19.4682    0.0000 O   0  0  0  0  0  0  0  0  0  0  0  0
   23.4361  -17.4134    0.0000 O   0  0  0  0  0  0  0  0  0  0  0  0
   38.4821  -19.3765    0.0000 O   0  0  0  0  0  0  0  0  0  0  0  0
   10.5323  -17.5094    0.0000 O   0  0  0  0  0  0  0  0  0  0  0  0
    4.0720  -19.6225    0.0000 O   0  0  0  0  0  0  0  0  0  0  0  0
   42.0707  -17.2843    0.0000 C   0  0  0  0  0  0  0  0  0  0  0  0
   -3.0926  -19.6766    0.0000 C   0  0  0  0  0  0  0  0  0  0  0  0
   44.2172  -19.3349    0.0000 C   0  0  0  0  0  0  0  0  0  0  0  0
    6.2268  -17.5385    0.0000 O   0  0  0  0  0  0  0  0  0  0  0  0
   44.9424  -17.2593    0.0000 O   0  0  0  0  0  0  0  0  0  0  0  0
   29.1711  -17.3718    0.0000 C   0  0  0  0  0  0  0  0  0  0  0  0
    1.2004  -19.6433    0.0000 C   0  0  2  0  0  0  0  0  0  0  0  0
   40.6412  -20.6061    0.0000 O   0  0  0  0  0  0  0  0  0  0  0  0
   32.0386  -20.6603    0.0000 O   0  0  0  0  0  0  0  0  0  0  0  0
    8.3692  -19.5933    0.0000 O   0  0  0  0  0  0  0  0  0  0  0  0
   -4.5305  -19.6850    0.0000 O   0  0  0  0  0  0  0  0  0  0  0  0
   26.2869  -15.7463    0.0000 O   0  0  0  0  0  0  0  0  0  0  0  0
   24.8698  -17.4009    0.0000 C   0  0  0  0  0  0  0  0  0  0  0  0
    7.6648  -18.3679    0.0000 C   0  0  0  0  0  0  0  0  0  0  0  0
   35.6105  -19.3974    0.0000 C   0  0  0  0  0  0  0  0  0  0  0  0
   14.1042  -19.5516    0.0000 C   0  0  0  0  0  0  0  0  0  0  0  0
   18.4096  -19.5182    0.0000 C   0  0  2  0  0  0  0  0  0  0  0  0
   41.3664  -19.3682    0.0000 N   0  0  0  0  0  0  0  0  0  0  0  0
   25.5783  -16.9925    0.0000 C   0  0  0  0  0  0  0  0  0  0  0  0
   45.6509  -18.5096    0.0000 O   0  0  0  0  0  0  0  0  0  0  0  0
   32.7638  -19.4307    0.0000 O   0  0  0  0  0  0  0  0  0  0  0  0
   24.8531  -15.7379    0.0000 O   0  0  0  0  0  0  0  0  0  0  0  0
   -2.3715  -20.0934    0.0000 C   0  0  0  0  0  0  0  0  0  0  0  0
   44.9424  -19.7558    0.0000 C   0  0  0  0  0  0  0  0  0  0  0  0
   42.7793  -16.8758    0.0000 C   0  0  0  0  0  0  0  0  0  0  0  0
   27.0079  -19.4557    0.0000 C   0  0  0  0  0  0  0  0  0  0  0  0
    5.5016  -19.6141    0.0000 C   0  0  0  0  0  0  0  0  0  0  0  0
   -5.9685  -18.8639    0.0000 N   0  0  0  0  0  0  0  0  0  0  0  0
   17.6844  -14.9711    0.0000 N   0  0  0  0  0  0  0  0  0  0  0  0
   13.3789  -15.0044    0.0000 N   0  0  0  0  0  0  0  0  0  0  0  0
   39.1907  -14.8211    0.0000 N   0  0  0  0  0  0  0  0  0  0  0  0
   34.8853  -14.8461    0.0000 N   0  0  0  0  0  0  0  0  0  0  0  0
   24.1613  -21.9607    0.0000 N   0  0  0  0  0  0  0  0  0  0  0  0
   11.2575  -22.0565    0.0000 N   0  0  0  0  0  0  0  0  0  0  0  0
    1.9298  -20.0642    0.0000 O   0  0  0  0  0  0  0  0  0  0  0  0
   -5.2432  -18.4471    0.0000 C   0  0  0  0  0  0  0  0  0  0  0  0
   27.7332  -19.8809    0.0000 O   0  0  0  0  0  0  0  0  0  0  0  0
    6.2268  -20.0351    0.0000 O   0  0  0  0  0  0  0  0  0  0  0  0
   29.8755  -16.9633    0.0000 C   0  0  0  0  0  0  0  0  0  0  0  0
   16.2673  -17.4676    0.0000 C   0  0  0  0  0  0  0  0  0  0  0  0
   22.7067  -19.4890    0.0000 C   0  0  0  0  0  0  0  0  0  0  0  0
   37.7736  -17.3134    0.0000 C   0  0  0  0  0  0  0  0  0  0  0  0
   11.9660  -17.4968    0.0000 C   0  0  0  0  0  0  0  0  0  0  0  0
   33.4724  -17.3468    0.0000 C   0  0  0  0  0  0  0  0  0  0  0  0
    9.8071  -19.5808    0.0000 C   0  0  0  0  0  0  0  0  0  0  0  0
    3.3635  -17.5594    0.0000 C   0  0  0  0  0  0  0  0  0  0  0  0
   20.5644  -17.4343    0.0000 C   0  0  0  0  0  0  0  0  0  0  0  0
   24.1613  -21.1437    0.0000 C   0  0  0  0  0  0  0  0  0  0  0  0
   39.1907  -15.6588    0.0000 C   0  0  0  0  0  0  0  0  0  0  0  0
   11.2575  -21.2396    0.0000 C   0  0  0  0  0  0  0  0  0  0  0  0
   17.6844  -15.8089    0.0000 C   0  0  0  0  0  0  0  0  0  0  0  0
   13.3789  -15.8422    0.0000 C   0  0  0  0  0  0  0  0  0  0  0  0
   34.8853  -15.6838    0.0000 C   0  0  0  0  0  0  0  0  0  0  0  0
   17.7010  -19.9267    0.0000 C   0  0  0  0  0  0  0  0  0  0  0  0
    0.4959  -20.0517    0.0000 C   0  0  0  0  0  0  0  0  0  0  0  0
   14.8336  -19.9684    0.0000 C   0  0  0  0  0  0  0  0  0  0  0  0
   13.3956  -19.9601    0.0000 C   0  0  0  0  0  0  0  0  0  0  0  0
   36.3399  -19.8183    0.0000 C   0  0  0  0  0  0  0  0  0  0  0  0
   34.9020  -19.8058    0.0000 C   0  0  0  0  0  0  0  0  0  0  0  0
   19.1348  -19.9392    0.0000 C   0  0  0  0  0  0  0  0  0  0  0  0
   43.4961  -17.2676    0.0000 C   0  0  0  0  0  0  0  0  0  0  0  0
   -1.6547  -19.6683    0.0000 C   0  0  0  0  0  0  0  0  0  0  0  0
   44.9549  -20.5686    0.0000 C   0  0  0  0  0  0  0  0  0  0  0  0
   42.7709  -16.0339    0.0000 C   0  0  0  0  0  0  0  0  0  0  0  0
   45.6592  -19.3265    0.0000 C   0  0  0  0  0  0  0  0  0  0  0  0
   -2.3590  -20.9104    0.0000 C   0  0  0  0  0  0  0  0  0  0  0  0
   10.5323  -20.0017    0.0000 C   0  0  0  0  0  0  0  0  0  0  0  0
   23.4361  -19.9059    0.0000 C   0  0  0  0  0  0  0  0  0  0  0  0
   38.4821  -16.9050    0.0000 C   0  0  0  0  0  0  0  0  0  0  0  0
   34.1768  -16.9300    0.0000 C   0  0  0  0  0  0  0  0  0  0  0  0
   12.6704  -17.0883    0.0000 C   0  0  0  0  0  0  0  0  0  0  0  0
   16.9758  -17.0592    0.0000 C   0  0  0  0  0  0  0  0  0  0  0  0
   16.9758  -16.2215    0.0000 C   0  0  0  0  0  0  0  0  0  0  0  0
   34.1768  -16.0922    0.0000 C   0  0  0  0  0  0  0  0  0  0  0  0
   38.4821  -16.0672    0.0000 C   0  0  0  0  0  0  0  0  0  0  0  0
   12.6704  -16.2506    0.0000 C   0  0  0  0  0  0  0  0  0  0  0  0
   10.5323  -20.8186    0.0000 C   0  0  0  0  0  0  0  0  0  0  0  0
   23.4361  -20.7311    0.0000 C   0  0  0  0  0  0  0  0  0  0  0  0
   29.8755  -16.1255    0.0000 C   0  0  0  0  0  0  0  0  0  0  0  0
   30.5882  -17.3718    0.0000 C   0  0  0  0  0  0  0  0  0  0  0  0
   17.7010  -20.7686    0.0000 C   0  0  0  0  0  0  0  0  0  0  0  0
   -1.6422  -21.3188    0.0000 C   0  0  0  0  0  0  0  0  0  0  0  0
   44.2047  -16.8508    0.0000 C   0  0  0  0  0  0  0  0  0  0  0  0
   43.4795  -15.6171    0.0000 C   0  0  0  0  0  0  0  0  0  0  0  0
   46.3803  -19.7350    0.0000 C   0  0  0  0  0  0  0  0  0  0  0  0
   45.6717  -20.9729    0.0000 C   0  0  0  0  0  0  0  0  0  0  0  0
   -0.9378  -20.0767    0.0000 C   0  0  0  0  0  0  0  0  0  0  0  0
   46.3845  -20.5603    0.0000 C   0  0  0  0  0  0  0  0  0  0  0  0
   -0.9336  -20.8979    0.0000 C   0  0  0  0  0  0  0  0  0  0  0  0
   44.2005  -16.0214    0.0000 C   0  0  0  0  0  0  0  0  0  0  0  0
  1  2  1  0  0  0  0
  1  3  1  6  0  0  0
 36  4  1  0  0  0  0
 38  5  1  0  0  0  0
 37  6  1  0  0  0  0
  7 14  1  0  0  0  0
  8 12  1  0  0  0  0
  9 13  1  0  0  0  0
 10  3  1  0  0  0  0
 28 11  1  0  0  0  0
 72 12  1  0  0  0  0
 69 13  1  0  0  0  0
 73 14  1  0  0  0  0
 44 15  1  0  0  0  0
 43 16  1  0  0  0  0
 54 17  1  0  0  0  0
 53 18  1  0  0  0  0
 19 32  1  0  0  0  0
 62 20  1  0  0  0  0
 71 21  1  0  0  0  0
 74 22  1  0  0  0  0
 70 23  1  0  0  0  0
 75 24  1  0  0  0  0
 78 25  1  0  0  0  0
 26 20  1  0  0  0  0
 27 21  1  0  0  0  0
 28 26  1  6  0  0  0
 29 17  1  0  0  0  0
 30 11  1  0  0  0  0
 31 22  1  0  0  0  0
 50 32  1  1  0  0  0
 33  2  1  0  0  0  0
 34 27  1  6  0  0  0
 35 15  1  0  0  0  0
 36  7  1  6  0  0  0
 37  8  1  6  0  0  0
 38  9  1  6  0  0  0
 39 18  1  0  0  0  0
 40  5  1  0  0  0  0
 41  4  1  0  0  0  0
 42  6  1  0  0  0  0
 43 29  1  6  0  0  0
 44 31  1  6  0  0  0
 45 24  1  0  0  0  0
 46 16  1  0  0  0  0
 47 25  1  0  0  0  0
 48 23  1  0  0  0  0
 34 49  1  0  0  0  0
 50 10  1  0  0  0  0
 44 51  1  0  0  0  0
 43 52  1  0  0  0  0
 53 35  1  1  0  0  0
 54 30  1  1  0  0  0
 55 80  1  0  0  0  0
 56 19  1  0  0  0  0
 57 39  1  6  0  0  0
 57 58  1  0  0  0  0
 56 59  1  6  0  0  0
 60 63  1  0  0  0  0
 61 67  1  0  0  0  0
 62 45  1  1  0  0  0
 50 63  1  0  0  0  0
 64 51  1  0  0  0  0
 65 60  1  0  0  0  0
 66 52  1  0  0  0  0
 67114  1  0  0  0  0
 68 49  1  0  0  0  0
 69 41  1  1  0  0  0
 70 40  1  0  0  0  0
 71 33  1  0  0  0  0
 72 46  1  1  0  0  0
 73 47  1  1  0  0  0
 74 42  1  1  0  0  0
 75 48  1  6  0  0  0
 76 65  1  0  0  0  0
 77 59  1  0  0  0  0
 78 61  1  6  0  0  0
 79119  1  0  0  0  0
 80 60  2  0  0  0  0
 81  2  2  0  0  0  0
 82  5  2  0  0  0  0
 83  4  2  0  0  0  0
 84  6  2  0  0  0  0
 85 11  2  0  0  0  0
 86 10  2  0  0  0  0
 87 14  2  0  0  0  0
 88 12  2  0  0  0  0
 89 13  2  0  0  0  0
 90 18  2  0  0  0  0
 91 16  2  0  0  0  0
 92 17  2  0  0  0  0
 93 15  2  0  0  0  0
 94 19  2  0  0  0  0
 95 23  2  0  0  0  0
 96 20  2  0  0  0  0
 97 24  2  0  0  0  0
 98 22  2  0  0  0  0
 99 25  2  0  0  0  0
100 21  2  0  0  0  0
 53101  1  0  0  0  0
 56102  1  0  0  0  0
 57103  1  0  0  0  0
104 49  2  0  0  0  0
105 58  2  0  0  0  0
 54106  1  0  0  0  0
  1107  1  0  0  0  0
108 64  2  0  0  0  0
109 66  2  0  0  0  0
110 67  2  0  0  0  0
111 77  2  0  0  0  0
112 79  2  0  0  0  0
 62113  1  0  0  0  0
114 68  1  0  0  0  0
 37115  1  0  0  0  0
 36116  1  0  0  0  0
 38117  1  0  0  0  0
118 64  1  0  0  0  0
119113  1  0  0  0  0
120 58  1  0  0  0  0
121 66  1  0  0  0  0
122 79  1  0  0  0  0
123102  1  0  0  0  0
124103  1  0  0  0  0
125101  1  0  0  0  0
 28126  1  0  0  0  0
 34127  1  0  0  0  0
128136  1  0  0  0  0
129151  1  0  0  0  0
130152  1  0  0  0  0
131149  1  0  0  0  0
132153  1  0  0  0  0
133148  1  0  0  0  0
134150  1  0  0  0  0
107135  1  6  0  0  0
136 77  1  0  0  0  0
137126  1  0  0  0  0
138127  1  0  0  0  0
139106  1  0  0  0  0
 69140  1  0  0  0  0
 75141  1  0  0  0  0
 74142  1  0  0  0  0
 73143  1  0  0  0  0
 72144  1  0  0  0  0
 78145  1  0  0  0  0
 71146  1  1  0  0  0
 70147  1  1  0  0  0
148178  1  0  0  0  0
149175  1  0  0  0  0
150177  1  0  0  0  0
151173  1  0  0  0  0
152176  1  0  0  0  0
153174  1  0  0  0  0
117154  1  0  0  0  0
107155  1  0  0  0  0
156116  1  0  0  0  0
157116  1  0  0  0  0
158115  1  0  0  0  0
159115  1  0  0  0  0
117160  1  1  0  0  0
161125  2  0  0  0  0
162123  2  0  0  0  0
163124  2  0  0  0  0
164125  1  0  0  0  0
165124  1  0  0  0  0
166123  1  0  0  0  0
167145  1  0  0  0  0
168141  1  0  0  0  0
169142  1  0  0  0  0
170144  1  0  0  0  0
171143  1  0  0  0  0
172140  1  0  0  0  0
173172  1  0  0  0  0
174170  1  0  0  0  0
175169  1  0  0  0  0
176171  1  0  0  0  0
177167  1  0  0  0  0
178168  1  0  0  0  0
179139  1  0  0  0  0
180139  1  0  0  0  0
181154  1  0  0  0  0
182166  2  0  0  0  0
183161  1  0  0  0  0
184164  2  0  0  0  0
185165  2  0  0  0  0
186163  1  0  0  0  0
187162  1  0  0  0  0
188185  1  0  0  0  0
189187  2  0  0  0  0
190183  2  0  0  0  0
 55 76  2  0  0  0  0
182189  1  0  0  0  0
184190  1  0  0  0  0
186188  2  0  0  0  0
M  END
> <From>
www.bindingDB.org

> <BindingDB Reactant_set_id>
51016957

> <Ligand InChI>
InChI=1S/C124H199N33O33/c1-12-70(8)101(156-112(177)83(45-27-33-53-130)145-121(186)100(69(6)7)154-110(175)81(43-25-31-51-128)141-106(171)78(40-22-28-48-125)138-96(163)63-134-105(170)92(64-158)152-104(169)72(10)137-123(188)102(73(11)160)157-118(183)88(58-77-62-133-66-135-77)148-114(179)86(139-95(162)61-131)55-74-34-16-13-17-35-74)122(187)136-71(9)103(168)140-79(41-23-29-49-126)107(172)143-84(46-47-97(164)165)109(174)153-93(65-159)119(184)146-85(54-67(2)3)113(178)150-90(60-98(166)167)117(182)142-82(44-26-32-52-129)111(176)155-99(68(4)5)120(185)144-80(42-24-30-50-127)108(173)149-89(59-94(132)161)116(181)147-87(56-75-36-18-14-19-37-75)115(180)151-91(124(189)190)57-76-38-20-15-21-39-76/h13-21,34-39,62,66-73,78-93,99-102,158-160H,12,22-33,40-61,63-65,125-131H2,1-11H3,(H2,132,161)(H,133,135)(H,134,170)(H,136,187)(H,137,188)(H,138,163)(H,139,162)(H,140,168)(H,141,171)(H,142,182)(H,143,172)(H,144,185)(H,145,186)(H,146,184)(H,147,181)(H,148,179)(H,149,173)(H,150,178)(H,151,180)(H,152,169)(H,153,174)(H,154,175)(H,155,176)(H,156,177)(H,157,183)(H,164,165)(H,166,167)(H,189,190)/t70-,71-,72-,73+,78-,79-,80-,81-,82-,83-,84-,85-,86-,87-,88-,89-,90-,91-,92-,93-,99-,100-,101-,102-/m0/s1

> <Ligand InChI Key>
DHYHTDQJAKBYOW-JNVWVPGISA-N

> <BindingDB MonomerID>
50416569

> <BindingDB Ligand Name>
CHEMBL1215818

> <Target Name>
DNA repair protein RAD51 homolog 1

> <Target Source Organism According to Curator or DataSource>
Homo sapiens

> <Ki (nM)>


> <IC50 (nM)>
 5000

> <Kd (nM)>


> <EC50 (nM)>


> <kon (M-1-s-1)>


> <koff (s-1)>


> <pH>


> <Temp C>


> <Curation/DataSource>
ChEMBL

> <Article DOI>
10.1021/jm1002974

> <BindingDB Entry DOI>
10.7270/Q2NG4RV5

> <PMID>
20684611

> <PubChem AID>


> <Patent Number>


> <Authors>
Nomme, J; Renodon-Corniere, A; Asanomi, Y; Sakaguchi, K; Stasiak, AZ; Stasiak, A; Norden, B; Tran, V; Takahashi, M

> <Date of publication>
8/5/2010

> <Date in BindingDB>
5/22/2013

> <Institution>
Centre National de la Recherche Scientifique & Universite de Nantes

> <Link to Ligand in BindingDB>
http://www.bindingdb.org/bind/chemsearch/marvin/MolStructure.jsp?monomerid=50416569

> <Link to Ligand-Target Pair in BindingDB>
http://www.bindingdb.org/jsp/dbsearch/PrimarySearch_ki.jsp?energyterm=kJ/mole&tag=pol&polymerid=4676&target=DNA+repair+protein+RAD51+homolog+1&column=ki&startPg=0&Increment=50&submit=Search

> <Link to Ligand-Target Pair in BindingDB>
http://www.bindingdb.org/jsp/dbsearch/PrimarySearch_ki.jsp?energyterm=kJ/mole&tag=r21&monomerid=50416569&enzyme=DNA+repair+protein+RAD51+homolog+1&column=ki&startPg=0&Increment=50&submit=Search

> <Ligand HET ID in PDB>


> <PDB ID(s) for Ligand-Target Complex>


> <PubChem CID of Ligand>
49864246

> <PubChem SID of Ligand>
163365593

> <ChEBI ID of Ligand>


> <ChEMBL ID of Ligand>
CHEMBL1215818

> <DrugBank ID of Ligand>


> <IUPHAR_GRAC ID of Ligand>


> <KEGG ID of Ligand>


> <ZINC ID of Ligand>


> <Number of Protein Chains in Target (bigger than 1 implies a multichain complex)>
1

> <BindingDB Target Chain Sequence>
MAMQMQLEANADTSVEEESFGPQPISRLEQCGINANDVKKLEEAGFHTVEAVAYAPKKELINIKGISEAKADKILAEAAKLVPMGFTTATEFHQRRSEIIQITTGSKELDKLLQGGIETGSITEMFGEFRTGKTQICHTLAVTCQLPIDRGGGEGKAMYIDTEGTFRPERLLAVAERYGLSGSDVLDNVAYARAFNTDHQTQLLYQASAMMVESRYALLIVDSATALYRTDYSGRGELSARQMHLARFLRMLLRLADEFGVAVVITNQVVAQVDGAAMFAADPKKPIGGNIIAHASTTRLYLRKGRGETRICKIYDSPCLPEAEAMFAINADGVGDAKD

> <PDB ID(s) of Target Chain>
1N0W,5JZC,5NP7,5NWL,8BQ2,8BR2,8BSC

> <UniProt (SwissProt) Recommended Name of Target Chain>
DNA repair protein RAD51 homolog 1

> <UniProt (SwissProt) Entry Name of Target Chain>
RAD51_HUMAN

> <UniProt (SwissProt) Primary ID of Target Chain>
Q06609

> <UniProt (SwissProt) Secondary ID(s) of Target Chain>
B0FXP0 B2R8T6 Q6FHX9 Q6ZNA8 Q9BV60

> <UniProt (SwissProt) Alternative ID(s) of Target Chain>


> <UniProt (TrEMBL) Submitted Name of Target Chain>


> <UniProt (TrEMBL) Entry Name of Target Chain>


> <UniProt (TrEMBL) Primary ID of Target Chain>


> <UniProt (TrEMBL) Secondary ID(s) of Target Chain>


> <UniProt (TrEMBL) Alternative ID(s) of Target Chain>


$$$$

  Mrv0541 11241415252D          

193196  0  0  0  0            999 V2000
    1.5035  -28.0612    0.0000 C   0  0  1  0  0  0  0  0  0  0  0  0
    2.2197  -27.6447    0.0000 C   0  0  0  0  0  0  0  0  0  0  0  0
    0.7913  -27.6447    0.0000 N   0  0  0  0  0  0  0  0  0  0  0  0
   19.3738  -27.6447    0.0000 C   0  0  0  0  0  0  0  0  0  0  0  0
   15.0884  -27.6447    0.0000 C   0  0  0  0  0  0  0  0  0  0  0  0
   36.5320  -27.6447    0.0000 C   0  0  0  0  0  0  0  0  0  0  0  0
   13.6600  -27.6447    0.0000 N   0  0  0  0  0  0  0  0  0  0  0  0
   35.1035  -27.6447    0.0000 N   0  0  0  0  0  0  0  0  0  0  0  0
   17.9454  -27.6447    0.0000 N   0  0  0  0  0  0  0  0  0  0  0  0
    0.0750  -28.0612    0.0000 C   0  0  0  0  0  0  0  0  0  0  0  0
   27.9529  -27.6447    0.0000 C   0  0  0  0  0  0  0  0  0  0  0  0
   21.5186  -28.0612    0.0000 C   0  0  0  0  0  0  0  0  0  0  0  0
   34.3873  -28.0612    0.0000 C   0  0  0  0  0  0  0  0  0  0  0  0
   12.9436  -28.0612    0.0000 C   0  0  0  0  0  0  0  0  0  0  0  0
   17.2332  -28.0612    0.0000 C   0  0  0  0  0  0  0  0  0  0  0  0
   40.8174  -27.6447    0.0000 C   0  0  0  0  0  0  0  0  0  0  0  0
   32.2424  -27.6447    0.0000 C   0  0  0  0  0  0  0  0  0  0  0  0
   30.0935  -28.0612    0.0000 C   0  0  0  0  0  0  0  0  0  0  0  0
   42.9622  -28.0612    0.0000 C   0  0  0  0  0  0  0  0  0  0  0  0
   -2.0698  -27.6447    0.0000 C   0  0  0  0  0  0  0  0  0  0  0  0
   20.0901  -28.0612    0.0000 N   0  0  0  0  0  0  0  0  0  0  0  0
   25.8081  -28.0612    0.0000 C   0  0  0  0  0  0  0  0  0  0  0  0
    4.3646  -28.0612    0.0000 C   0  0  0  0  0  0  0  0  0  0  0  0
   38.6768  -28.0612    0.0000 C   0  0  0  0  0  0  0  0  0  0  0  0
   23.6634  -27.6447    0.0000 C   0  0  0  0  0  0  0  0  0  0  0  0
   10.7989  -27.6447    0.0000 C   0  0  0  0  0  0  0  0  0  0  0  0
   26.5202  -27.6447    0.0000 N   0  0  0  0  0  0  0  0  0  0  0  0
    5.0767  -27.6447    0.0000 N   0  0  0  0  0  0  0  0  0  0  0  0
   20.8065  -27.6447    0.0000 C   0  0  1  0  0  0  0  0  0  0  0  0
   27.2366  -28.0612    0.0000 C   0  0  1  0  0  0  0  0  0  0  0  0
   30.8140  -27.6447    0.0000 N   0  0  0  0  0  0  0  0  0  0  0  0
   28.6651  -28.0612    0.0000 N   0  0  0  0  0  0  0  0  0  0  0  0
   39.3889  -27.6447    0.0000 N   0  0  0  0  0  0  0  0  0  0  0  0
    2.9319  -28.0612    0.0000 N   0  0  0  0  0  0  0  0  0  0  0  0
    5.7971  -28.0612    0.0000 C   0  0  2  0  0  0  0  0  0  0  0  0
   41.5338  -28.0612    0.0000 N   0  0  0  0  0  0  0  0  0  0  0  0
   -1.3535  -28.0612    0.0000 N   0  0  0  0  0  0  0  0  0  0  0  0
   14.3721  -28.0612    0.0000 C   0  0  1  0  0  0  0  0  0  0  0  0
   35.8157  -28.0612    0.0000 C   0  0  1  0  0  0  0  0  0  0  0  0
   18.6616  -28.0612    0.0000 C   0  0  1  0  0  0  0  0  0  0  0  0
   43.6785  -27.6447    0.0000 N   0  0  0  0  0  0  0  0  0  0  0  0
   15.8005  -28.0612    0.0000 N   0  0  0  0  0  0  0  0  0  0  0  0
   37.2442  -28.0612    0.0000 N   0  0  0  0  0  0  0  0  0  0  0  0
   31.5303  -28.0612    0.0000 C   0  0  1  0  0  0  0  0  0  0  0  0
   40.1053  -28.0612    0.0000 C   0  0  1  0  0  0  0  0  0  0  0  0
   22.2349  -27.6447    0.0000 N   0  0  0  0  0  0  0  0  0  0  0  0
   24.3797  -28.0612    0.0000 N   0  0  0  0  0  0  0  0  0  0  0  0
   32.9588  -28.0612    0.0000 N   0  0  0  0  0  0  0  0  0  0  0  0
   11.5151  -28.0612    0.0000 N   0  0  0  0  0  0  0  0  0  0  0  0
    6.5093  -27.6447    0.0000 C   0  0  0  0  0  0  0  0  0  0  0  0
   40.1053  -28.8816    0.0000 C   0  0  0  0  0  0  0  0  0  0  0  0
   31.5303  -28.8816    0.0000 C   0  0  0  0  0  0  0  0  0  0  0  0
   -0.6414  -27.6447    0.0000 C   0  0  1  0  0  0  0  0  0  0  0  0
   42.2500  -27.6447    0.0000 C   0  0  1  0  0  0  0  0  0  0  0  0
   29.3855  -27.6447    0.0000 C   0  0  1  0  0  0  0  0  0  0  0  0
   -2.7819  -28.0612    0.0000 C   0  0  1  0  0  0  0  0  0  0  0  0
   44.3907  -28.0612    0.0000 C   0  0  2  0  0  0  0  0  0  0  0  0
   45.1070  -27.6447    0.0000 C   0  0  0  0  0  0  0  0  0  0  0  0
   -3.4983  -27.6447    0.0000 N   0  0  0  0  0  0  0  0  0  0  0  0
    9.3704  -27.6447    0.0000 N   0  0  0  0  0  0  0  0  0  0  0  0
   25.0919  -27.6447    0.0000 C   0  0  1  0  0  0  0  0  0  0  0  0
   40.8174  -29.2981    0.0000 C   0  0  0  0  0  0  0  0  0  0  0  0
   32.2424  -29.2981    0.0000 C   0  0  0  0  0  0  0  0  0  0  0  0
    8.6540  -28.0612    0.0000 C   0  0  0  0  0  0  0  0  0  0  0  0
    7.2256  -28.0612    0.0000 N   0  0  0  0  0  0  0  0  0  0  0  0
   16.5169  -27.6447    0.0000 C   0  0  1  0  0  0  0  0  0  0  0  0
    3.6482  -27.6447    0.0000 C   0  0  1  0  0  0  0  0  0  0  0  0
   33.6709  -27.6447    0.0000 C   0  0  1  0  0  0  0  0  0  0  0  0
   12.2273  -27.6447    0.0000 C   0  0  1  0  0  0  0  0  0  0  0  0
   37.9605  -27.6447    0.0000 C   0  0  1  0  0  0  0  0  0  0  0  0
   22.9470  -28.0612    0.0000 C   0  0  1  0  0  0  0  0  0  0  0  0
   -4.2146  -28.0612    0.0000 C   0  0  0  0  0  0  0  0  0  0  0  0
   10.0867  -28.0612    0.0000 C   0  0  1  0  0  0  0  0  0  0  0  0
   25.8081  -25.5832    0.0000 C   0  0  0  0  0  0  0  0  0  0  0  0
    2.2197  -26.8201    0.0000 O   0  0  0  0  0  0  0  0  0  0  0  0
   19.3738  -26.8201    0.0000 O   0  0  0  0  0  0  0  0  0  0  0  0
   15.0884  -26.8201    0.0000 O   0  0  0  0  0  0  0  0  0  0  0  0
   36.5320  -26.8201    0.0000 O   0  0  0  0  0  0  0  0  0  0  0  0
   21.5186  -28.8816    0.0000 O   0  0  0  0  0  0  0  0  0  0  0  0
   27.9529  -26.8201    0.0000 O   0  0  0  0  0  0  0  0  0  0  0  0
    0.0750  -28.8816    0.0000 O   0  0  0  0  0  0  0  0  0  0  0  0
   17.2332  -28.8816    0.0000 O   0  0  0  0  0  0  0  0  0  0  0  0
   34.3873  -28.8816    0.0000 O   0  0  0  0  0  0  0  0  0  0  0  0
   12.9436  -28.8816    0.0000 O   0  0  0  0  0  0  0  0  0  0  0  0
   42.9622  -28.8816    0.0000 O   0  0  0  0  0  0  0  0  0  0  0  0
   32.2424  -26.8201    0.0000 O   0  0  0  0  0  0  0  0  0  0  0  0
   30.0935  -28.8816    0.0000 O   0  0  0  0  0  0  0  0  0  0  0  0
   40.8174  -26.8201    0.0000 O   0  0  0  0  0  0  0  0  0  0  0  0
   -2.0698  -26.8201    0.0000 O   0  0  0  0  0  0  0  0  0  0  0  0
   38.6768  -28.8816    0.0000 O   0  0  0  0  0  0  0  0  0  0  0  0
   23.6634  -26.8201    0.0000 O   0  0  0  0  0  0  0  0  0  0  0  0
   25.8081  -28.8816    0.0000 O   0  0  0  0  0  0  0  0  0  0  0  0
   10.7989  -26.8201    0.0000 O   0  0  0  0  0  0  0  0  0  0  0  0
    4.3646  -28.8816    0.0000 O   0  0  0  0  0  0  0  0  0  0  0  0
   -0.6414  -26.8201    0.0000 C   0  0  0  0  0  0  0  0  0  0  0  0
   42.2500  -26.8201    0.0000 C   0  0  0  0  0  0  0  0  0  0  0  0
   -2.7819  -28.8816    0.0000 C   0  0  0  0  0  0  0  0  0  0  0  0
   44.3907  -28.8816    0.0000 C   0  0  0  0  0  0  0  0  0  0  0  0
    6.5093  -26.8201    0.0000 O   0  0  0  0  0  0  0  0  0  0  0  0
   45.1070  -26.8201    0.0000 O   0  0  0  0  0  0  0  0  0  0  0  0
   29.3855  -26.8201    0.0000 C   0  0  0  0  0  0  0  0  0  0  0  0
    1.5035  -28.8816    0.0000 C   0  0  2  0  0  0  0  0  0  0  0  0
   40.8174  -30.1227    0.0000 O   0  0  0  0  0  0  0  0  0  0  0  0
   32.2424  -30.1227    0.0000 O   0  0  0  0  0  0  0  0  0  0  0  0
    8.6540  -28.8816    0.0000 O   0  0  0  0  0  0  0  0  0  0  0  0
   -4.2146  -28.8816    0.0000 O   0  0  0  0  0  0  0  0  0  0  0  0
   26.5202  -25.1709    0.0000 O   0  0  0  0  0  0  0  0  0  0  0  0
   25.0919  -26.8201    0.0000 C   0  0  0  0  0  0  0  0  0  0  0  0
    7.9419  -27.6447    0.0000 C   0  0  0  0  0  0  0  0  0  0  0  0
   35.8157  -28.8816    0.0000 C   0  0  0  0  0  0  0  0  0  0  0  0
   14.3721  -28.8816    0.0000 C   0  0  0  0  0  0  0  0  0  0  0  0
   18.6616  -28.8816    0.0000 C   0  0  2  0  0  0  0  0  0  0  0  0
   41.5338  -28.8816    0.0000 N   0  0  0  0  0  0  0  0  0  0  0  0
   25.8081  -26.4078    0.0000 C   0  0  0  0  0  0  0  0  0  0  0  0
    0.0750  -26.4078    0.0000 C   0  0  0  0  0  0  0  0  0  0  0  0
   45.8232  -28.0612    0.0000 O   0  0  0  0  0  0  0  0  0  0  0  0
    1.5035  -25.5791    0.0000 C   0  0  0  0  0  0  0  0  0  0  0  0
   32.9588  -28.8816    0.0000 O   0  0  0  0  0  0  0  0  0  0  0  0
   25.0919  -25.1709    0.0000 O   0  0  0  0  0  0  0  0  0  0  0  0
   -2.0698  -29.2981    0.0000 C   0  0  0  0  0  0  0  0  0  0  0  0
   45.1070  -29.2981    0.0000 C   0  0  0  0  0  0  0  0  0  0  0  0
   42.9622  -26.4078    0.0000 C   0  0  0  0  0  0  0  0  0  0  0  0
   27.2366  -28.8816    0.0000 C   0  0  0  0  0  0  0  0  0  0  0  0
   20.8065  -26.8201    0.0000 C   0  0  0  0  0  0  0  0  0  0  0  0
    5.7971  -28.8816    0.0000 C   0  0  0  0  0  0  0  0  0  0  0  0
   -5.6430  -28.0612    0.0000 N   0  0  0  0  0  0  0  0  0  0  0  0
    0.7913  -26.8201    0.0000 C   0  0  0  0  0  0  0  0  0  0  0  0
    0.0750  -25.5791    0.0000 C   0  0  0  0  0  0  0  0  0  0  0  0
   13.6600  -24.3463    0.0000 N   0  0  0  0  0  0  0  0  0  0  0  0
   11.5151  -31.3596    0.0000 N   0  0  0  0  0  0  0  0  0  0  0  0
   39.3889  -24.3463    0.0000 N   0  0  0  0  0  0  0  0  0  0  0  0
   35.1035  -24.3463    0.0000 N   0  0  0  0  0  0  0  0  0  0  0  0
   24.3797  -31.3596    0.0000 N   0  0  0  0  0  0  0  0  0  0  0  0
   17.9454  -24.3463    0.0000 N   0  0  0  0  0  0  0  0  0  0  0  0
    1.5035  -26.4078    0.0000 C   0  0  0  0  0  0  0  0  0  0  0  0
    0.7913  -25.1709    0.0000 C   0  0  0  0  0  0  0  0  0  0  0  0
    2.2197  -29.2981    0.0000 O   0  0  0  0  0  0  0  0  0  0  0  0
    2.2197  -25.1709    0.0000 O   0  0  0  0  0  0  0  0  0  0  0  0
   -4.9268  -27.6447    0.0000 C   0  0  0  0  0  0  0  0  0  0  0  0
    6.5093  -29.2981    0.0000 O   0  0  0  0  0  0  0  0  0  0  0  0
   27.9529  -29.2981    0.0000 O   0  0  0  0  0  0  0  0  0  0  0  0
   21.5186  -26.4078    0.0000 O   0  0  0  0  0  0  0  0  0  0  0  0
   30.0935  -26.4078    0.0000 C   0  0  0  0  0  0  0  0  0  0  0  0
   16.5169  -26.8201    0.0000 C   0  0  0  0  0  0  0  0  0  0  0  0
   22.9470  -28.8816    0.0000 C   0  0  0  0  0  0  0  0  0  0  0  0
   37.9605  -26.8201    0.0000 C   0  0  0  0  0  0  0  0  0  0  0  0
   12.2273  -26.8201    0.0000 C   0  0  0  0  0  0  0  0  0  0  0  0
   33.6709  -26.8201    0.0000 C   0  0  0  0  0  0  0  0  0  0  0  0
   10.0867  -28.8816    0.0000 C   0  0  0  0  0  0  0  0  0  0  0  0
    3.6482  -26.8201    0.0000 C   0  0  0  0  0  0  0  0  0  0  0  0
   24.3797  -30.5392    0.0000 C   0  0  0  0  0  0  0  0  0  0  0  0
   39.3889  -25.1709    0.0000 C   0  0  0  0  0  0  0  0  0  0  0  0
   17.9454  -25.1709    0.0000 C   0  0  0  0  0  0  0  0  0  0  0  0
   13.6600  -25.1709    0.0000 C   0  0  0  0  0  0  0  0  0  0  0  0
   11.5151  -30.5392    0.0000 C   0  0  0  0  0  0  0  0  0  0  0  0
   35.1035  -25.1709    0.0000 C   0  0  0  0  0  0  0  0  0  0  0  0
   17.9454  -29.2981    0.0000 C   0  0  0  0  0  0  0  0  0  0  0  0
    0.7913  -29.2981    0.0000 C   0  0  0  0  0  0  0  0  0  0  0  0
   13.6600  -29.2981    0.0000 C   0  0  0  0  0  0  0  0  0  0  0  0
   15.0884  -29.2981    0.0000 C   0  0  0  0  0  0  0  0  0  0  0  0
   36.5320  -29.2981    0.0000 C   0  0  0  0  0  0  0  0  0  0  0  0
   35.1035  -29.2981    0.0000 C   0  0  0  0  0  0  0  0  0  0  0  0
   19.3738  -29.2981    0.0000 C   0  0  0  0  0  0  0  0  0  0  0  0
   43.6785  -26.8201    0.0000 C   0  0  0  0  0  0  0  0  0  0  0  0
   -2.0698  -30.1185    0.0000 C   0  0  0  0  0  0  0  0  0  0  0  0
   45.1070  -30.1185    0.0000 C   0  0  0  0  0  0  0  0  0  0  0  0
   42.9622  -25.5791    0.0000 C   0  0  0  0  0  0  0  0  0  0  0  0
   45.8232  -28.8858    0.0000 C   0  0  0  0  0  0  0  0  0  0  0  0
   -1.3535  -28.8858    0.0000 C   0  0  0  0  0  0  0  0  0  0  0  0
   12.9436  -26.4078    0.0000 C   0  0  0  0  0  0  0  0  0  0  0  0
   23.6634  -29.2981    0.0000 C   0  0  0  0  0  0  0  0  0  0  0  0
   38.6768  -26.4078    0.0000 C   0  0  0  0  0  0  0  0  0  0  0  0
   34.3873  -26.4078    0.0000 C   0  0  0  0  0  0  0  0  0  0  0  0
   17.2332  -26.4078    0.0000 C   0  0  0  0  0  0  0  0  0  0  0  0
   10.7989  -29.2981    0.0000 C   0  0  0  0  0  0  0  0  0  0  0  0
   12.9436  -25.5832    0.0000 C   0  0  0  0  0  0  0  0  0  0  0  0
   34.3873  -25.5832    0.0000 C   0  0  0  0  0  0  0  0  0  0  0  0
   38.6768  -25.5832    0.0000 C   0  0  0  0  0  0  0  0  0  0  0  0
   10.7989  -30.1227    0.0000 C   0  0  0  0  0  0  0  0  0  0  0  0
   17.2332  -25.5832    0.0000 C   0  0  0  0  0  0  0  0  0  0  0  0
   23.6634  -30.1227    0.0000 C   0  0  0  0  0  0  0  0  0  0  0  0
   30.0935  -25.5832    0.0000 C   0  0  0  0  0  0  0  0  0  0  0  0
   30.8140  -26.8201    0.0000 C   0  0  0  0  0  0  0  0  0  0  0  0
   17.9454  -30.1227    0.0000 C   0  0  0  0  0  0  0  0  0  0  0  0
   -0.6372  -29.2981    0.0000 C   0  0  0  0  0  0  0  0  0  0  0  0
   44.3948  -26.4078    0.0000 C   0  0  0  0  0  0  0  0  0  0  0  0
   43.6785  -25.1709    0.0000 C   0  0  0  0  0  0  0  0  0  0  0  0
   46.5354  -29.2981    0.0000 C   0  0  0  0  0  0  0  0  0  0  0  0
   45.8232  -30.5350    0.0000 C   0  0  0  0  0  0  0  0  0  0  0  0
   -1.3535  -30.5350    0.0000 C   0  0  0  0  0  0  0  0  0  0  0  0
   46.5354  -30.1185    0.0000 C   0  0  0  0  0  0  0  0  0  0  0  0
   -0.6372  -30.1185    0.0000 C   0  0  0  0  0  0  0  0  0  0  0  0
   44.3948  -25.5791    0.0000 C   0  0  0  0  0  0  0  0  0  0  0  0
  1  2  1  0  0  0  0
  1  3  1  6  0  0  0
 40  4  1  0  0  0  0
 38  5  1  0  0  0  0
 39  6  1  0  0  0  0
  7 14  1  0  0  0  0
  8 13  1  0  0  0  0
  9 15  1  0  0  0  0
 10  3  1  0  0  0  0
 30 11  1  0  0  0  0
 29 12  1  0  0  0  0
 68 13  1  0  0  0  0
 69 14  1  0  0  0  0
 66 15  1  0  0  0  0
 45 16  1  0  0  0  0
 44 17  1  0  0  0  0
 55 18  1  0  0  0  0
 54 19  1  0  0  0  0
 20 37  1  0  0  0  0
 21  4  1  0  0  0  0
 61 22  1  0  0  0  0
 67 23  1  0  0  0  0
 70 24  1  0  0  0  0
 71 25  1  0  0  0  0
 73 26  1  0  0  0  0
 27 22  1  0  0  0  0
 28 23  1  0  0  0  0
 29 21  1  1  0  0  0
 30 27  1  6  0  0  0
 31 18  1  0  0  0  0
 32 11  1  0  0  0  0
 33 24  1  0  0  0  0
 34  2  1  0  0  0  0
 35 28  1  6  0  0  0
 36 16  1  0  0  0  0
 53 37  1  1  0  0  0
 38  7  1  6  0  0  0
 39  8  1  6  0  0  0
 40  9  1  6  0  0  0
 41 19  1  0  0  0  0
 42  5  1  0  0  0  0
 43  6  1  0  0  0  0
 44 31  1  6  0  0  0
 45 33  1  6  0  0  0
 46 12  1  0  0  0  0
 47 25  1  0  0  0  0
 48 17  1  0  0  0  0
 49 26  1  0  0  0  0
 35 50  1  0  0  0  0
 45 51  1  0  0  0  0
 44 52  1  0  0  0  0
 53 10  1  0  0  0  0
 54 36  1  1  0  0  0
 55 32  1  1  0  0  0
 56 20  1  0  0  0  0
 57 41  1  6  0  0  0
 57 58  1  0  0  0  0
 56 59  1  6  0  0  0
 60 64  1  0  0  0  0
 61 47  1  1  0  0  0
 62 51  1  0  0  0  0
 63 52  1  0  0  0  0
 64109  1  0  0  0  0
 65 50  1  0  0  0  0
 66 42  1  1  0  0  0
 67 34  1  0  0  0  0
 68 48  1  1  0  0  0
 69 49  1  1  0  0  0
 70 43  1  1  0  0  0
 71 46  1  6  0  0  0
 72 59  1  0  0  0  0
 73 60  1  6  0  0  0
 74114  1  0  0  0  0
 75  2  2  0  0  0  0
 76  4  2  0  0  0  0
 77  5  2  0  0  0  0
 78  6  2  0  0  0  0
 79 12  2  0  0  0  0
 80 11  2  0  0  0  0
 81 10  2  0  0  0  0
 82 15  2  0  0  0  0
 83 13  2  0  0  0  0
 84 14  2  0  0  0  0
 85 19  2  0  0  0  0
 86 17  2  0  0  0  0
 87 18  2  0  0  0  0
 88 16  2  0  0  0  0
 89 20  2  0  0  0  0
 90 24  2  0  0  0  0
 91 25  2  0  0  0  0
 92 22  2  0  0  0  0
 93 26  2  0  0  0  0
 94 23  2  0  0  0  0
 53 95  1  0  0  0  0
 54 96  1  0  0  0  0
 56 97  1  0  0  0  0
 57 98  1  0  0  0  0
 99 50  2  0  0  0  0
100 58  2  0  0  0  0
 55101  1  0  0  0  0
  1102  1  0  0  0  0
103 62  2  0  0  0  0
104 63  2  0  0  0  0
105 64  2  0  0  0  0
106 72  2  0  0  0  0
107 74  2  0  0  0  0
 61108  1  0  0  0  0
109 65  1  0  0  0  0
 39110  1  0  0  0  0
 38111  1  0  0  0  0
 40112  1  0  0  0  0
113 62  1  0  0  0  0
114108  1  0  0  0  0
115 95  1  0  0  0  0
116 58  1  0  0  0  0
117135  2  0  0  0  0
118 63  1  0  0  0  0
119 74  1  0  0  0  0
120 97  1  0  0  0  0
121 98  1  0  0  0  0
122 96  1  0  0  0  0
 30123  1  0  0  0  0
 29124  1  0  0  0  0
 35125  1  0  0  0  0
126139  1  0  0  0  0
127115  2  0  0  0  0
128115  1  0  0  0  0
129154  1  0  0  0  0
130155  1  0  0  0  0
131152  1  0  0  0  0
132156  1  0  0  0  0
133151  1  0  0  0  0
134153  1  0  0  0  0
135127  1  0  0  0  0
136128  2  0  0  0  0
102137  1  6  0  0  0
138117  1  0  0  0  0
139 72  1  0  0  0  0
140125  1  0  0  0  0
141123  1  0  0  0  0
142124  1  0  0  0  0
143101  1  0  0  0  0
 66144  1  0  0  0  0
 71145  1  0  0  0  0
 70146  1  0  0  0  0
 69147  1  0  0  0  0
 68148  1  0  0  0  0
 73149  1  0  0  0  0
 67150  1  1  0  0  0
151181  1  0  0  0  0
152178  1  0  0  0  0
153180  1  0  0  0  0
154176  1  0  0  0  0
155179  1  0  0  0  0
156177  1  0  0  0  0
112157  1  0  0  0  0
102158  1  0  0  0  0
159111  1  0  0  0  0
160111  1  0  0  0  0
161110  1  0  0  0  0
162110  1  0  0  0  0
112163  1  1  0  0  0
164122  2  0  0  0  0
165120  2  0  0  0  0
166121  2  0  0  0  0
167122  1  0  0  0  0
168121  1  0  0  0  0
169120  1  0  0  0  0
170147  1  0  0  0  0
171145  1  0  0  0  0
172146  1  0  0  0  0
173148  1  0  0  0  0
174144  1  0  0  0  0
175149  1  0  0  0  0
176170  1  0  0  0  0
177173  1  0  0  0  0
178172  1  0  0  0  0
179175  1  0  0  0  0
180174  1  0  0  0  0
181171  1  0  0  0  0
182143  1  0  0  0  0
183143  1  0  0  0  0
184157  1  0  0  0  0
185169  2  0  0  0  0
186164  1  0  0  0  0
187167  2  0  0  0  0
188168  2  0  0  0  0
189166  1  0  0  0  0
190165  1  0  0  0  0
191188  1  0  0  0  0
192185  1  0  0  0  0
193186  2  0  0  0  0
136117  1  0  0  0  0
190192  2  0  0  0  0
187193  1  0  0  0  0
189191  2  0  0  0  0
M  END
> <From>
www.bindingDB.org

> <BindingDB Reactant_set_id>
51016958

> <Ligand InChI>
InChI=1S/C127H201N31O35/c1-11-72(8)104(157-114(179)85(44-26-32-56-133)145-124(189)103(71(6)7)155-112(177)83(42-24-30-54-131)140-108(173)80(39-21-27-51-128)138-99(166)65-136-107(172)94(66-159)152-106(171)73(9)137-126(191)105(74(10)162)158-120(185)90(60-78-45-47-79(163)48-46-78)148-116(181)88(139-98(165)64-134)58-75-33-15-12-16-34-75)125(190)154-96(68-161)121(186)142-81(40-22-28-52-129)109(174)143-86(49-50-100(167)168)111(176)153-95(67-160)122(187)146-87(57-69(2)3)115(180)150-92(63-101(169)170)119(184)141-84(43-25-31-55-132)113(178)156-102(70(4)5)123(188)144-82(41-23-29-53-130)110(175)149-91(62-97(135)164)118(183)147-89(59-76-35-17-13-18-36-76)117(182)151-93(127(192)193)61-77-37-19-14-20-38-77/h12-20,33-38,45-48,69-74,80-96,102-105,159-163H,11,21-32,39-44,49-68,128-134H2,1-10H3,(H2,135,164)(H,136,172)(H,137,191)(H,138,166)(H,139,165)(H,140,173)(H,141,184)(H,142,186)(H,143,174)(H,144,188)(H,145,189)(H,146,187)(H,147,183)(H,148,181)(H,149,175)(H,150,180)(H,151,182)(H,152,171)(H,153,176)(H,154,190)(H,155,177)(H,156,178)(H,157,179)(H,158,185)(H,167,168)(H,169,170)(H,192,193)/t72-,73-,74+,80-,81-,82-,83-,84-,85-,86-,87-,88-,89-,90-,91-,92-,93-,94-,95-,96-,102-,103-,104-,105-/m0/s1

> <Ligand InChI Key>
HHEJEJNXLAWPSZ-XNZAUPJISA-N

> <BindingDB MonomerID>
50416570

> <BindingDB Ligand Name>
CHEMBL1215819

> <Target Name>
DNA repair protein RAD51 homolog 1

> <Target Source Organism According to Curator or DataSource>
Homo sapiens

> <Ki (nM)>


> <IC50 (nM)>
 1500

> <Kd (nM)>


> <EC50 (nM)>


> <kon (M-1-s-1)>


> <koff (s-1)>


> <pH>


> <Temp C>


> <Curation/DataSource>
ChEMBL

> <Article DOI>
10.1021/jm1002974

> <BindingDB Entry DOI>
10.7270/Q2NG4RV5

> <PMID>
20684611

> <PubChem AID>


> <Patent Number>


> <Authors>
Nomme, J; Renodon-Corniere, A; Asanomi, Y; Sakaguchi, K; Stasiak, AZ; Stasiak, A; Norden, B; Tran, V; Takahashi, M

> <Date of publication>
8/5/2010

> <Date in BindingDB>
5/22/2013

> <Institution>
Centre National de la Recherche Scientifique & Universite de Nantes

> <Link to Ligand in BindingDB>
http://www.bindingdb.org/bind/chemsearch/marvin/MolStructure.jsp?monomerid=50416570

> <Link to Ligand-Target Pair in BindingDB>
http://www.bindingdb.org/jsp/dbsearch/PrimarySearch_ki.jsp?energyterm=kJ/mole&tag=pol&polymerid=4676&target=DNA+repair+protein+RAD51+homolog+1&column=ki&startPg=0&Increment=50&submit=Search

> <Link to Ligand-Target Pair in BindingDB>
http://www.bindingdb.org/jsp/dbsearch/PrimarySearch_ki.jsp?energyterm=kJ/mole&tag=r21&monomerid=50416570&enzyme=DNA+repair+protein+RAD51+homolog+1&column=ki&startPg=0&Increment=50&submit=Search

> <Ligand HET ID in PDB>


> <PDB ID(s) for Ligand-Target Complex>


> <PubChem CID of Ligand>
46899807

> <PubChem SID of Ligand>
163365594

> <ChEBI ID of Ligand>


> <ChEMBL ID of Ligand>
CHEMBL1215819

> <DrugBank ID of Ligand>


> <IUPHAR_GRAC ID of Ligand>


> <KEGG ID of Ligand>


> <ZINC ID of Ligand>


> <Number of Protein Chains in Target (bigger than 1 implies a multichain complex)>
1

> <BindingDB Target Chain Sequence>
MAMQMQLEANADTSVEEESFGPQPISRLEQCGINANDVKKLEEAGFHTVEAVAYAPKKELINIKGISEAKADKILAEAAKLVPMGFTTATEFHQRRSEIIQITTGSKELDKLLQGGIETGSITEMFGEFRTGKTQICHTLAVTCQLPIDRGGGEGKAMYIDTEGTFRPERLLAVAERYGLSGSDVLDNVAYARAFNTDHQTQLLYQASAMMVESRYALLIVDSATALYRTDYSGRGELSARQMHLARFLRMLLRLADEFGVAVVITNQVVAQVDGAAMFAADPKKPIGGNIIAHASTTRLYLRKGRGETRICKIYDSPCLPEAEAMFAINADGVGDAKD

> <PDB ID(s) of Target Chain>
1N0W,5JZC,5NP7,5NWL,8BQ2,8BR2,8BSC

> <UniProt (SwissProt) Recommended Name of Target Chain>
DNA repair protein RAD51 homolog 1

> <UniProt (SwissProt) Entry Name of Target Chain>
RAD51_HUMAN

> <UniProt (SwissProt) Primary ID of Target Chain>
Q06609

> <UniProt (SwissProt) Secondary ID(s) of Target Chain>
B0FXP0 B2R8T6 Q6FHX9 Q6ZNA8 Q9BV60

> <UniProt (SwissProt) Alternative ID(s) of Target Chain>


> <UniProt (TrEMBL) Submitted Name of Target Chain>


> <UniProt (TrEMBL) Entry Name of Target Chain>


> <UniProt (TrEMBL) Primary ID of Target Chain>


> <UniProt (TrEMBL) Secondary ID(s) of Target Chain>


> <UniProt (TrEMBL) Alternative ID(s) of Target Chain>


$$$$

  Mrv0541 11241415252D          

187189  0  0  0  0            999 V2000
  -10.9324   -2.8113    0.0000 C   0  0  1  0  0  0  0  0  0  0  0  0
  -10.2109   -3.1992    0.0000 C   0  0  0  0  0  0  0  0  0  0  0  0
  -11.6416   -3.2493    0.0000 N   0  0  0  0  0  0  0  0  0  0  0  0
    2.6653   -2.7404    0.0000 C   0  0  0  0  0  0  0  0  0  0  0  0
    6.9616   -2.5819    0.0000 C   0  0  0  0  0  0  0  0  0  0  0  0
   24.1340   -1.9729    0.0000 C   0  0  0  0  0  0  0  0  0  0  0  0
    1.2346   -2.7863    0.0000 N   0  0  0  0  0  0  0  0  0  0  0  0
   22.7034   -2.0230    0.0000 N   0  0  0  0  0  0  0  0  0  0  0  0
    5.5267   -2.6361    0.0000 N   0  0  0  0  0  0  0  0  0  0  0  0
  -12.3632   -2.8613    0.0000 C   0  0  0  0  0  0  0  0  0  0  0  0
   15.5458   -2.2774    0.0000 C   0  0  0  0  0  0  0  0  0  0  0  0
   21.9859   -1.6392    0.0000 C   0  0  0  0  0  0  0  0  0  0  0  0
    4.8093   -2.2482    0.0000 C   0  0  0  0  0  0  0  0  0  0  0  0
    0.5130   -2.3984    0.0000 C   0  0  0  0  0  0  0  0  0  0  0  0
   28.4303   -1.8227    0.0000 C   0  0  0  0  0  0  0  0  0  0  0  0
   19.8419   -2.1273    0.0000 C   0  0  0  0  0  0  0  0  0  0  0  0
   17.6896   -1.7852    0.0000 C   0  0  0  0  0  0  0  0  0  0  0  0
   30.5700   -1.3306    0.0000 C   0  0  0  0  0  0  0  0  0  0  0  0
  -14.5029   -3.3494    0.0000 C   0  0  0  0  0  0  0  0  0  0  0  0
   13.3976   -1.9438    0.0000 C   0  0  0  0  0  0  0  0  0  0  0  0
   -8.0711   -2.7071    0.0000 C   0  0  0  0  0  0  0  0  0  0  0  0
   26.2780   -1.4849    0.0000 C   0  0  0  0  0  0  0  0  0  0  0  0
    9.1014   -2.0980    0.0000 C   0  0  0  0  0  0  0  0  0  0  0  0
   11.2578   -2.4318    0.0000 C   0  0  0  0  0  0  0  0  0  0  0  0
   -1.6267   -2.8906    0.0000 C   0  0  0  0  0  0  0  0  0  0  0  0
   14.1150   -2.3317    0.0000 N   0  0  0  0  0  0  0  0  0  0  0  0
   -7.3536   -3.0950    0.0000 N   0  0  0  0  0  0  0  0  0  0  0  0
   14.8283   -1.8895    0.0000 C   0  0  1  0  0  0  0  0  0  0  0  0
   18.4113   -2.1773    0.0000 N   0  0  0  0  0  0  0  0  0  0  0  0
   16.2590   -1.8395    0.0000 N   0  0  0  0  0  0  0  0  0  0  0  0
   26.9954   -1.8728    0.0000 N   0  0  0  0  0  0  0  0  0  0  0  0
  -13.7939   -2.9073    0.0000 N   0  0  0  0  0  0  0  0  0  0  0  0
   -9.4976   -2.7571    0.0000 N   0  0  0  0  0  0  0  0  0  0  0  0
   -6.6446   -2.6528    0.0000 C   0  0  2  0  0  0  0  0  0  0  0  0
   29.1393   -1.3807    0.0000 N   0  0  0  0  0  0  0  0  0  0  0  0
    1.9479   -2.3525    0.0000 C   0  0  1  0  0  0  0  0  0  0  0  0
   23.4166   -1.5850    0.0000 C   0  0  1  0  0  0  0  0  0  0  0  0
    6.2441   -2.1940    0.0000 C   0  0  1  0  0  0  0  0  0  0  0  0
   31.2916   -1.7185    0.0000 N   0  0  0  0  0  0  0  0  0  0  0  0
    7.6707   -2.1440    0.0000 N   0  0  0  0  0  0  0  0  0  0  0  0
    3.3786   -2.3025    0.0000 N   0  0  0  0  0  0  0  0  0  0  0  0
   24.8515   -1.5349    0.0000 N   0  0  0  0  0  0  0  0  0  0  0  0
   19.1204   -1.7394    0.0000 C   0  0  1  0  0  0  0  0  0  0  0  0
   27.7087   -1.4348    0.0000 C   0  0  1  0  0  0  0  0  0  0  0  0
   11.9669   -1.9938    0.0000 N   0  0  0  0  0  0  0  0  0  0  0  0
   20.5552   -1.6893    0.0000 N   0  0  0  0  0  0  0  0  0  0  0  0
   -0.9135   -2.4484    0.0000 N   0  0  0  0  0  0  0  0  0  0  0  0
    9.8230   -2.4859    0.0000 N   0  0  0  0  0  0  0  0  0  0  0  0
   -5.9230   -3.0407    0.0000 C   0  0  0  0  0  0  0  0  0  0  0  0
  -13.0722   -3.2952    0.0000 C   0  0  1  0  0  0  0  0  0  0  0  0
   27.6837   -0.5964    0.0000 C   0  0  0  0  0  0  0  0  0  0  0  0
   19.0995   -0.9052    0.0000 C   0  0  0  0  0  0  0  0  0  0  0  0
   16.9764   -2.2274    0.0000 C   0  0  1  0  0  0  0  0  0  0  0  0
   29.8568   -1.7686    0.0000 C   0  0  1  0  0  0  0  0  0  0  0  0
  -11.0868   -4.9970    0.0000 N   0  0  0  0  0  0  0  0  0  0  0  0
  -15.2287   -2.9573    0.0000 C   0  0  1  0  0  0  0  0  0  0  0  0
   32.0049   -1.2806    0.0000 C   0  0  2  0  0  0  0  0  0  0  0  0
   32.7223   -1.6643    0.0000 C   0  0  0  0  0  0  0  0  0  0  0  0
  -15.9337   -3.3911    0.0000 N   0  0  0  0  0  0  0  0  0  0  0  0
  -12.3131   -4.5131    0.0000 C   0  0  0  0  0  0  0  0  0  0  0  0
   -3.0616   -2.9448    0.0000 N   0  0  0  0  0  0  0  0  0  0  0  0
   12.6843   -2.3817    0.0000 C   0  0  1  0  0  0  0  0  0  0  0  0
  -13.0514   -4.1169    0.0000 C   0  0  0  0  0  0  0  0  0  0  0  0
   28.3802   -0.1669    0.0000 C   0  0  0  0  0  0  0  0  0  0  0  0
  -12.3674   -5.3890    0.0000 N   0  0  0  0  0  0  0  0  0  0  0  0
   19.7919   -0.4713    0.0000 C   0  0  0  0  0  0  0  0  0  0  0  0
   -3.7790   -2.5569    0.0000 C   0  0  0  0  0  0  0  0  0  0  0  0
   -5.2097   -2.6070    0.0000 N   0  0  0  0  0  0  0  0  0  0  0  0
    4.0961   -2.6904    0.0000 C   0  0  1  0  0  0  0  0  0  0  0  0
    8.3881   -2.5319    0.0000 C   0  0  1  0  0  0  0  0  0  0  0  0
   -8.7801   -3.1450    0.0000 C   0  0  1  0  0  0  0  0  0  0  0  0
   21.2726   -2.0772    0.0000 C   0  0  1  0  0  0  0  0  0  0  0  0
   -0.1919   -2.8363    0.0000 C   0  0  1  0  0  0  0  0  0  0  0  0
   25.5689   -1.9228    0.0000 C   0  0  1  0  0  0  0  0  0  0  0  0
   10.5320   -2.0397    0.0000 C   0  0  1  0  0  0  0  0  0  0  0  0
  -11.5831   -5.6560    0.0000 C   0  0  0  0  0  0  0  0  0  0  0  0
  -16.6552   -2.9990    0.0000 C   0  0  0  0  0  0  0  0  0  0  0  0
   -2.3483   -2.5027    0.0000 C   0  0  1  0  0  0  0  0  0  0  0  0
   13.4643   -4.4130    0.0000 C   0  0  0  0  0  0  0  0  0  0  0  0
  -11.5665   -4.3254    0.0000 C   0  0  0  0  0  0  0  0  0  0  0  0
  -10.1900   -4.0126    0.0000 O   0  0  0  0  0  0  0  0  0  0  0  0
    6.9824   -3.4036    0.0000 O   0  0  0  0  0  0  0  0  0  0  0  0
    2.6904   -3.5580    0.0000 O   0  0  0  0  0  0  0  0  0  0  0  0
   24.1590   -2.7905    0.0000 O   0  0  0  0  0  0  0  0  0  0  0  0
   15.5708   -3.0950    0.0000 O   0  0  0  0  0  0  0  0  0  0  0  0
  -12.3840   -2.0230    0.0000 O   0  0  0  0  0  0  0  0  0  0  0  0
    0.4922   -1.5642    0.0000 O   0  0  0  0  0  0  0  0  0  0  0  0
   21.9609   -0.8009    0.0000 O   0  0  0  0  0  0  0  0  0  0  0  0
    4.7843   -1.4098    0.0000 O   0  0  0  0  0  0  0  0  0  0  0  0
   30.5450   -0.4922    0.0000 O   0  0  0  0  0  0  0  0  0  0  0  0
   19.8628   -2.9448    0.0000 O   0  0  0  0  0  0  0  0  0  0  0  0
   17.6646   -0.9552    0.0000 O   0  0  0  0  0  0  0  0  0  0  0  0
   28.4553   -2.6361    0.0000 O   0  0  0  0  0  0  0  0  0  0  0  0
  -14.4779   -4.1669    0.0000 O   0  0  0  0  0  0  0  0  0  0  0  0
    9.0805   -1.2555    0.0000 O   0  0  0  0  0  0  0  0  0  0  0  0
   13.3725   -1.1054    0.0000 O   0  0  0  0  0  0  0  0  0  0  0  0
   11.2787   -3.2493    0.0000 O   0  0  0  0  0  0  0  0  0  0  0  0
   26.2529   -0.6507    0.0000 O   0  0  0  0  0  0  0  0  0  0  0  0
   -1.6059   -3.7081    0.0000 O   0  0  0  0  0  0  0  0  0  0  0  0
   -8.0919   -1.8687    0.0000 O   0  0  0  0  0  0  0  0  0  0  0  0
  -15.2495   -2.1231    0.0000 C   0  0  0  0  0  0  0  0  0  0  0  0
   31.9798   -0.4422    0.0000 C   0  0  0  0  0  0  0  0  0  0  0  0
   -5.8980   -3.8583    0.0000 O   0  0  0  0  0  0  0  0  0  0  0  0
   32.7474   -2.4859    0.0000 O   0  0  0  0  0  0  0  0  0  0  0  0
   29.8860   -2.5903    0.0000 C   0  0  0  0  0  0  0  0  0  0  0  0
   17.0056   -3.0449    0.0000 C   0  0  0  0  0  0  0  0  0  0  0  0
  -10.9534   -1.9729    0.0000 C   0  0  2  0  0  0  0  0  0  0  0  0
   29.1018   -0.5548    0.0000 O   0  0  0  0  0  0  0  0  0  0  0  0
   20.5135   -0.8634    0.0000 O   0  0  0  0  0  0  0  0  0  0  0  0
   -3.7998   -1.7185    0.0000 O   0  0  0  0  0  0  0  0  0  0  0  0
  -16.6845   -2.1773    0.0000 O   0  0  0  0  0  0  0  0  0  0  0  0
   14.2026   -4.8093    0.0000 O   0  0  0  0  0  0  0  0  0  0  0  0
   12.7093   -3.1992    0.0000 C   0  0  0  0  0  0  0  0  0  0  0  0
   -4.4881   -2.9949    0.0000 C   0  0  0  0  0  0  0  0  0  0  0  0
   23.3916   -0.7466    0.0000 C   0  0  0  0  0  0  0  0  0  0  0  0
    1.9187   -1.5141    0.0000 C   0  0  0  0  0  0  0  0  0  0  0  0
    6.2149   -1.3597    0.0000 C   0  0  2  0  0  0  0  0  0  0  0  0
   28.3594    0.6674    0.0000 N   0  0  0  0  0  0  0  0  0  0  0  0
   13.4435   -3.5955    0.0000 C   0  0  0  0  0  0  0  0  0  0  0  0
   33.4356   -1.2305    0.0000 O   0  0  0  0  0  0  0  0  0  0  0  0
   19.7710    0.3629    0.0000 O   0  0  0  0  0  0  0  0  0  0  0  0
   12.7719   -4.8385    0.0000 O   0  0  0  0  0  0  0  0  0  0  0  0
   32.6765   -0.0125    0.0000 C   0  0  0  0  0  0  0  0  0  0  0  0
  -14.5530   -1.6976    0.0000 C   0  0  0  0  0  0  0  0  0  0  0  0
   14.8033   -1.0553    0.0000 C   0  0  0  0  0  0  0  0  0  0  0  0
   -6.6696   -1.8227    0.0000 C   0  0  0  0  0  0  0  0  0  0  0  0
  -18.0901   -3.0490    0.0000 N   0  0  0  0  0  0  0  0  0  0  0  0
   -1.0303    0.8634    0.0000 N   0  0  0  0  0  0  0  0  0  0  0  0
    5.6393   -5.9313    0.0000 N   0  0  0  0  0  0  0  0  0  0  0  0
    1.3472   -6.0857    0.0000 N   0  0  0  0  0  0  0  0  0  0  0  0
   27.1081   -5.1680    0.0000 N   0  0  0  0  0  0  0  0  0  0  0  0
   22.8160   -5.3182    0.0000 N   0  0  0  0  0  0  0  0  0  0  0  0
   11.8543    1.3181    0.0000 N   0  0  0  0  0  0  0  0  0  0  0  0
  -10.2567   -1.5433    0.0000 O   0  0  0  0  0  0  0  0  0  0  0  0
  -17.3685   -3.4370    0.0000 C   0  0  0  0  0  0  0  0  0  0  0  0
   -7.3996   -1.4223    0.0000 O   0  0  0  0  0  0  0  0  0  0  0  0
   14.0692   -0.6590    0.0000 O   0  0  0  0  0  0  0  0  0  0  0  0
   30.6201   -2.9865    0.0000 C   0  0  0  0  0  0  0  0  0  0  0  0
   17.7397   -3.4412    0.0000 C   0  0  0  0  0  0  0  0  0  0  0  0
    4.1252   -3.5037    0.0000 C   0  0  0  0  0  0  0  0  0  0  0  0
   10.5112   -1.2096    0.0000 C   0  0  0  0  0  0  0  0  0  0  0  0
   25.5897   -2.7362    0.0000 C   0  0  0  0  0  0  0  0  0  0  0  0
   -0.1710   -3.6581    0.0000 C   0  0  0  0  0  0  0  0  0  0  0  0
   21.2977   -2.8906    0.0000 C   0  0  0  0  0  0  0  0  0  0  0  0
   -2.3733   -1.6643    0.0000 C   0  0  0  0  0  0  0  0  0  0  0  0
   -8.7551   -3.9625    0.0000 C   0  0  0  0  0  0  0  0  0  0  0  0
    8.4132   -3.3494    0.0000 C   0  0  0  0  0  0  0  0  0  0  0  0
   11.8751    0.4880    0.0000 C   0  0  0  0  0  0  0  0  0  0  0  0
   27.0871   -4.3504    0.0000 C   0  0  0  0  0  0  0  0  0  0  0  0
   -1.0053    0.0250    0.0000 C   0  0  0  0  0  0  0  0  0  0  0  0
    5.6185   -5.1137    0.0000 C   0  0  0  0  0  0  0  0  0  0  0  0
    1.3222   -5.2681    0.0000 C   0  0  0  0  0  0  0  0  0  0  0  0
   22.7910   -4.5006    0.0000 C   0  0  0  0  0  0  0  0  0  0  0  0
    5.4808   -0.9635    0.0000 C   0  0  0  0  0  0  0  0  0  0  0  0
  -11.6874   -1.5767    0.0000 C   0  0  0  0  0  0  0  0  0  0  0  0
    1.1846   -1.1179    0.0000 C   0  0  0  0  0  0  0  0  0  0  0  0
    2.6153   -1.0845    0.0000 C   0  0  0  0  0  0  0  0  0  0  0  0
   22.6574   -0.3504    0.0000 C   0  0  0  0  0  0  0  0  0  0  0  0
   24.0839   -0.3211    0.0000 C   0  0  0  0  0  0  0  0  0  0  0  0
    6.9116   -0.9302    0.0000 C   0  0  0  0  0  0  0  0  0  0  0  0
   33.4064   -0.4004    0.0000 C   0  0  0  0  0  0  0  0  0  0  0  0
  -13.8230   -2.0772    0.0000 C   0  0  0  0  0  0  0  0  0  0  0  0
   32.6389    0.8051    0.0000 C   0  0  0  0  0  0  0  0  0  0  0  0
  -14.5863   -0.8717    0.0000 C   0  0  0  0  0  0  0  0  0  0  0  0
    0.5631   -4.0543    0.0000 C   0  0  0  0  0  0  0  0  0  0  0  0
    4.8594   -3.9000    0.0000 C   0  0  0  0  0  0  0  0  0  0  0  0
   -1.6768   -1.2388    0.0000 C   0  0  0  0  0  0  0  0  0  0  0  0
   11.2077   -0.7800    0.0000 C   0  0  0  0  0  0  0  0  0  0  0  0
   26.3280   -3.1366    0.0000 C   0  0  0  0  0  0  0  0  0  0  0  0
   22.0318   -3.2868    0.0000 C   0  0  0  0  0  0  0  0  0  0  0  0
   -1.6976   -0.4004    0.0000 C   0  0  0  0  0  0  0  0  0  0  0  0
   11.1786    0.0584    0.0000 C   0  0  0  0  0  0  0  0  0  0  0  0
    4.8802   -4.7175    0.0000 C   0  0  0  0  0  0  0  0  0  0  0  0
   22.0568   -4.1044    0.0000 C   0  0  0  0  0  0  0  0  0  0  0  0
   26.3489   -3.9542    0.0000 C   0  0  0  0  0  0  0  0  0  0  0  0
    0.5881   -4.8719    0.0000 C   0  0  0  0  0  0  0  0  0  0  0  0
   17.7606   -4.2628    0.0000 C   0  0  0  0  0  0  0  0  0  0  0  0
   30.6451   -3.8040    0.0000 C   0  0  0  0  0  0  0  0  0  0  0  0
   31.3292   -2.5444    0.0000 C   0  0  0  0  0  0  0  0  0  0  0  0
   18.4529   -3.0032    0.0000 C   0  0  0  0  0  0  0  0  0  0  0  0
    5.4600   -0.1460    0.0000 C   0  0  0  0  0  0  0  0  0  0  0  0
  -13.1265   -1.6350    0.0000 C   0  0  0  0  0  0  0  0  0  0  0  0
   33.3397    1.2513    0.0000 C   0  0  0  0  0  0  0  0  0  0  0  0
   34.1030    0.0458    0.0000 C   0  0  0  0  0  0  0  0  0  0  0  0
  -13.8898   -0.4297    0.0000 C   0  0  0  0  0  0  0  0  0  0  0  0
  -13.1598   -0.8134    0.0000 C   0  0  0  0  0  0  0  0  0  0  0  0
   34.0696    0.8676    0.0000 C   0  0  0  0  0  0  0  0  0  0  0  0
  1  2  1  0  0  0  0
  1  3  1  1  0  0  0
 36  4  1  0  0  0  0
 38  5  1  0  0  0  0
 37  6  1  0  0  0  0
  7 14  1  0  0  0  0
  8 12  1  0  0  0  0
  9 13  1  0  0  0  0
 10  3  1  0  0  0  0
 28 11  1  0  0  0  0
 72 12  1  0  0  0  0
 69 13  1  0  0  0  0
 73 14  1  0  0  0  0
 44 15  1  0  0  0  0
 43 16  1  0  0  0  0
 53 17  1  0  0  0  0
 54 18  1  0  0  0  0
 19 32  1  0  0  0  0
 62 20  1  0  0  0  0
 71 21  1  0  0  0  0
 74 22  1  0  0  0  0
 70 23  1  0  0  0  0
 75 24  1  0  0  0  0
 78 25  1  0  0  0  0
 26 20  1  0  0  0  0
 27 21  1  0  0  0  0
 28 26  1  1  0  0  0
 29 17  1  0  0  0  0
 30 11  1  0  0  0  0
 31 22  1  0  0  0  0
 50 32  1  6  0  0  0
 33  2  1  0  0  0  0
 34 27  1  1  0  0  0
 35 15  1  0  0  0  0
 36  7  1  1  0  0  0
 37  8  1  1  0  0  0
 38  9  1  1  0  0  0
 39 18  1  0  0  0  0
 40  5  1  0  0  0  0
 41  4  1  0  0  0  0
 42  6  1  0  0  0  0
 43 29  1  1  0  0  0
 44 31  1  1  0  0  0
 45 24  1  0  0  0  0
 46 16  1  0  0  0  0
 47 25  1  0  0  0  0
 48 23  1  0  0  0  0
 34 49  1  0  0  0  0
 50 10  1  0  0  0  0
 44 51  1  0  0  0  0
 43 52  1  0  0  0  0
 53 30  1  6  0  0  0
 54 35  1  6  0  0  0
 55 80  1  0  0  0  0
 56 19  1  0  0  0  0
 57 39  1  1  0  0  0
 57 58  1  0  0  0  0
 56 59  1  1  0  0  0
 60 63  1  0  0  0  0
 61 67  1  0  0  0  0
 62 45  1  6  0  0  0
 50 63  1  0  0  0  0
 64 51  1  0  0  0  0
 65 60  1  0  0  0  0
 66 52  1  0  0  0  0
 67114  1  0  0  0  0
 68 49  1  0  0  0  0
 69 41  1  6  0  0  0
 70 40  1  0  0  0  0
 71 33  1  0  0  0  0
 72 46  1  6  0  0  0
 73 47  1  6  0  0  0
 74 42  1  6  0  0  0
 75 48  1  1  0  0  0
 76 65  1  0  0  0  0
 77 59  1  0  0  0  0
 78 61  1  1  0  0  0
 79119  1  0  0  0  0
 80 60  2  0  0  0  0
 81  2  2  0  0  0  0
 82  5  2  0  0  0  0
 83  4  2  0  0  0  0
 84  6  2  0  0  0  0
 85 11  2  0  0  0  0
 86 10  2  0  0  0  0
 87 14  2  0  0  0  0
 88 12  2  0  0  0  0
 89 13  2  0  0  0  0
 90 18  2  0  0  0  0
 91 16  2  0  0  0  0
 92 17  2  0  0  0  0
 93 15  2  0  0  0  0
 94 19  2  0  0  0  0
 95 23  2  0  0  0  0
 96 20  2  0  0  0  0
 97 24  2  0  0  0  0
 98 22  2  0  0  0  0
 99 25  2  0  0  0  0
100 21  2  0  0  0  0
 56101  1  0  0  0  0
 57102  1  0  0  0  0
103 49  2  0  0  0  0
104 58  2  0  0  0  0
 54105  1  0  0  0  0
 53106  1  0  0  0  0
  1107  1  0  0  0  0
108 64  2  0  0  0  0
109 66  2  0  0  0  0
110 67  2  0  0  0  0
111 77  2  0  0  0  0
112 79  2  0  0  0  0
 62113  1  0  0  0  0
114 68  1  0  0  0  0
 37115  1  0  0  0  0
 36116  1  0  0  0  0
 38117  1  0  0  0  0
118 64  1  0  0  0  0
119113  1  0  0  0  0
120 58  1  0  0  0  0
121 66  1  0  0  0  0
122 79  1  0  0  0  0
123102  1  0  0  0  0
124101  1  0  0  0  0
 28125  1  0  0  0  0
 34126  1  0  0  0  0
127135  1  0  0  0  0
128150  1  0  0  0  0
129151  1  0  0  0  0
130152  1  0  0  0  0
131149  1  0  0  0  0
132153  1  0  0  0  0
133148  1  0  0  0  0
107134  1  1  0  0  0
135 77  1  0  0  0  0
136126  1  0  0  0  0
137125  1  0  0  0  0
138105  1  0  0  0  0
139106  1  0  0  0  0
 69140  1  0  0  0  0
 75141  1  0  0  0  0
 74142  1  0  0  0  0
 73143  1  0  0  0  0
 72144  1  0  0  0  0
 78145  1  0  0  0  0
 71146  1  6  0  0  0
 70147  1  6  0  0  0
148172  1  0  0  0  0
149175  1  0  0  0  0
150171  1  0  0  0  0
151173  1  0  0  0  0
152176  1  0  0  0  0
153174  1  0  0  0  0
117154  1  0  0  0  0
107155  1  0  0  0  0
156116  1  0  0  0  0
157116  1  0  0  0  0
158115  1  0  0  0  0
159115  1  0  0  0  0
117160  1  6  0  0  0
161123  2  0  0  0  0
162124  2  0  0  0  0
163123  1  0  0  0  0
164124  1  0  0  0  0
165143  1  0  0  0  0
166140  1  0  0  0  0
167145  1  0  0  0  0
168141  1  0  0  0  0
169142  1  0  0  0  0
170144  1  0  0  0  0
171167  1  0  0  0  0
172168  1  0  0  0  0
173166  1  0  0  0  0
174170  1  0  0  0  0
175169  1  0  0  0  0
176165  1  0  0  0  0
177139  1  0  0  0  0
178138  1  0  0  0  0
179138  1  0  0  0  0
180139  1  0  0  0  0
181154  1  0  0  0  0
182162  1  0  0  0  0
183163  2  0  0  0  0
184161  1  0  0  0  0
185164  2  0  0  0  0
186185  1  0  0  0  0
187183  1  0  0  0  0
 55 76  2  0  0  0  0
182186  2  0  0  0  0
184187  2  0  0  0  0
M  END
> <From>
www.bindingDB.org

> <BindingDB Reactant_set_id>
51016959

> <Ligand InChI>
InChI=1S/C121H201N33O33/c1-14-68(10)98(153-109(174)80(42-26-32-50-127)142-118(183)97(67(8)9)151-107(172)78(40-24-30-48-125)138-103(168)75(37-21-27-45-122)135-93(160)60-131-102(167)89(61-155)149-101(166)70(12)134-120(185)99(71(13)157)154-115(180)85(55-74-59-130-63-132-74)145-112(177)84(136-92(159)58-128)53-72-33-17-15-18-34-72)119(184)133-69(11)100(165)137-76(38-22-28-46-123)104(169)140-81(43-44-94(161)162)106(171)150-90(62-156)116(181)144-82(51-64(2)3)110(175)147-87(57-95(163)164)114(179)139-79(41-25-31-49-126)108(173)152-96(66(6)7)117(182)141-77(39-23-29-47-124)105(170)146-86(56-91(129)158)113(178)143-83(52-65(4)5)111(176)148-88(121(186)187)54-73-35-19-16-20-36-73/h15-20,33-36,59,63-71,75-90,96-99,155-157H,14,21-32,37-58,60-62,122-128H2,1-13H3,(H2,129,158)(H,130,132)(H,131,167)(H,133,184)(H,134,185)(H,135,160)(H,136,159)(H,137,165)(H,138,168)(H,139,179)(H,140,169)(H,141,182)(H,142,183)(H,143,178)(H,144,181)(H,145,177)(H,146,170)(H,147,175)(H,148,176)(H,149,166)(H,150,171)(H,151,172)(H,152,173)(H,153,174)(H,154,180)(H,161,162)(H,163,164)(H,186,187)/t68-,69-,70-,71+,75-,76-,77-,78-,79-,80-,81-,82-,83-,84-,85-,86-,87-,88-,89-,90-,96-,97-,98-,99-/m0/s1

> <Ligand InChI Key>
JXEIUXCHCRAUMP-SRJRRBQKSA-N

> <BindingDB MonomerID>
50416564

> <BindingDB Ligand Name>
CHEMBL1215813

> <Target Name>
DNA repair protein RAD51 homolog 1

> <Target Source Organism According to Curator or DataSource>
Homo sapiens

> <Ki (nM)>


> <IC50 (nM)>
 6000

> <Kd (nM)>


> <EC50 (nM)>


> <kon (M-1-s-1)>


> <koff (s-1)>


> <pH>


> <Temp C>


> <Curation/DataSource>
ChEMBL

> <Article DOI>
10.1021/jm1002974

> <BindingDB Entry DOI>
10.7270/Q2NG4RV5

> <PMID>
20684611

> <PubChem AID>


> <Patent Number>


> <Authors>
Nomme, J; Renodon-Corniere, A; Asanomi, Y; Sakaguchi, K; Stasiak, AZ; Stasiak, A; Norden, B; Tran, V; Takahashi, M

> <Date of publication>
8/5/2010

> <Date in BindingDB>
5/22/2013

> <Institution>
Centre National de la Recherche Scientifique & Universite de Nantes

> <Link to Ligand in BindingDB>
http://www.bindingdb.org/bind/chemsearch/marvin/MolStructure.jsp?monomerid=50416564

> <Link to Ligand-Target Pair in BindingDB>
http://www.bindingdb.org/jsp/dbsearch/PrimarySearch_ki.jsp?energyterm=kJ/mole&tag=pol&polymerid=4676&target=DNA+repair+protein+RAD51+homolog+1&column=ki&startPg=0&Increment=50&submit=Search

> <Link to Ligand-Target Pair in BindingDB>
http://www.bindingdb.org/jsp/dbsearch/PrimarySearch_ki.jsp?energyterm=kJ/mole&tag=r21&monomerid=50416564&enzyme=DNA+repair+protein+RAD51+homolog+1&column=ki&startPg=0&Increment=50&submit=Search

> <Ligand HET ID in PDB>


> <PDB ID(s) for Ligand-Target Complex>


> <PubChem CID of Ligand>
49864242

> <PubChem SID of Ligand>
163365588

> <ChEBI ID of Ligand>


> <ChEMBL ID of Ligand>
CHEMBL1215813

> <DrugBank ID of Ligand>


> <IUPHAR_GRAC ID of Ligand>


> <KEGG ID of Ligand>


> <ZINC ID of Ligand>


> <Number of Protein Chains in Target (bigger than 1 implies a multichain complex)>
1

> <BindingDB Target Chain Sequence>
MAMQMQLEANADTSVEEESFGPQPISRLEQCGINANDVKKLEEAGFHTVEAVAYAPKKELINIKGISEAKADKILAEAAKLVPMGFTTATEFHQRRSEIIQITTGSKELDKLLQGGIETGSITEMFGEFRTGKTQICHTLAVTCQLPIDRGGGEGKAMYIDTEGTFRPERLLAVAERYGLSGSDVLDNVAYARAFNTDHQTQLLYQASAMMVESRYALLIVDSATALYRTDYSGRGELSARQMHLARFLRMLLRLADEFGVAVVITNQVVAQVDGAAMFAADPKKPIGGNIIAHASTTRLYLRKGRGETRICKIYDSPCLPEAEAMFAINADGVGDAKD

> <PDB ID(s) of Target Chain>
1N0W,5JZC,5NP7,5NWL,8BQ2,8BR2,8BSC

> <UniProt (SwissProt) Recommended Name of Target Chain>
DNA repair protein RAD51 homolog 1

> <UniProt (SwissProt) Entry Name of Target Chain>
RAD51_HUMAN

> <UniProt (SwissProt) Primary ID of Target Chain>
Q06609

> <UniProt (SwissProt) Secondary ID(s) of Target Chain>
B0FXP0 B2R8T6 Q6FHX9 Q6ZNA8 Q9BV60

> <UniProt (SwissProt) Alternative ID(s) of Target Chain>


> <UniProt (TrEMBL) Submitted Name of Target Chain>


> <UniProt (TrEMBL) Entry Name of Target Chain>


> <UniProt (TrEMBL) Primary ID of Target Chain>


> <UniProt (TrEMBL) Secondary ID(s) of Target Chain>


> <UniProt (TrEMBL) Alternative ID(s) of Target Chain>


$$$$

  Mrv0541 11241415252D          

189191  0  0  0  0            999 V2000
    2.2500  -26.8625    0.0000 C   0  0  1  0  0  0  0  0  0  0  0  0
    2.9625  -26.4500    0.0000 C   0  0  0  0  0  0  0  0  0  0  0  0
    1.5333  -26.4500    0.0000 N   0  0  0  0  0  0  0  0  0  0  0  0
   15.8375  -26.4500    0.0000 C   0  0  0  0  0  0  0  0  0  0  0  0
   20.1292  -26.4500    0.0000 C   0  0  0  0  0  0  0  0  0  0  0  0
   36.5792  -27.6875    0.0000 C   0  0  0  0  0  0  0  0  0  0  0  0
   14.4083  -26.4500    0.0000 N   0  0  0  0  0  0  0  0  0  0  0  0
   35.1458  -27.6875    0.0000 N   0  0  0  0  0  0  0  0  0  0  0  0
   18.7000  -26.4500    0.0000 N   0  0  0  0  0  0  0  0  0  0  0  0
    0.8208  -26.8625    0.0000 C   0  0  0  0  0  0  0  0  0  0  0  0
   28.7125  -26.4500    0.0000 C   0  0  0  0  0  0  0  0  0  0  0  0
   34.4333  -28.1000    0.0000 C   0  0  0  0  0  0  0  0  0  0  0  0
   17.9833  -26.8625    0.0000 C   0  0  0  0  0  0  0  0  0  0  0  0
   13.6958  -26.8625    0.0000 C   0  0  0  0  0  0  0  0  0  0  0  0
   40.8667  -27.6875    0.0000 C   0  0  0  0  0  0  0  0  0  0  0  0
   32.2875  -27.6875    0.0000 C   0  0  0  0  0  0  0  0  0  0  0  0
   43.0167  -28.1000    0.0000 C   0  0  0  0  0  0  0  0  0  0  0  0
   30.8583  -26.8625    0.0000 C   0  0  0  0  0  0  0  0  0  0  0  0
   -1.3250  -26.4500    0.0000 C   0  0  0  0  0  0  0  0  0  0  0  0
   26.5667  -26.8625    0.0000 C   0  0  0  0  0  0  0  0  0  0  0  0
    5.1083  -26.8625    0.0000 C   0  0  0  0  0  0  0  0  0  0  0  0
   38.7208  -28.1000    0.0000 C   0  0  0  0  0  0  0  0  0  0  0  0
   22.2792  -26.8625    0.0000 C   0  0  0  0  0  0  0  0  0  0  0  0
   24.4250  -26.4500    0.0000 C   0  0  0  0  0  0  0  0  0  0  0  0
   11.5500  -26.4500    0.0000 C   0  0  0  0  0  0  0  0  0  0  0  0
   27.2833  -26.4500    0.0000 N   0  0  0  0  0  0  0  0  0  0  0  0
    5.8292  -26.4500    0.0000 N   0  0  0  0  0  0  0  0  0  0  0  0
   28.0000  -26.8625    0.0000 C   0  0  1  0  0  0  0  0  0  0  0  0
   30.8583  -27.6875    0.0000 N   0  0  0  0  0  0  0  0  0  0  0  0
   29.4292  -26.8625    0.0000 N   0  0  0  0  0  0  0  0  0  0  0  0
   39.4375  -27.6875    0.0000 N   0  0  0  0  0  0  0  0  0  0  0  0
    3.6792  -26.8625    0.0000 N   0  0  0  0  0  0  0  0  0  0  0  0
    6.5417  -26.8625    0.0000 C   0  0  2  0  0  0  0  0  0  0  0  0
   41.5875  -28.1000    0.0000 N   0  0  0  0  0  0  0  0  0  0  0  0
   -0.6125  -26.8625    0.0000 N   0  0  0  0  0  0  0  0  0  0  0  0
   15.1250  -26.8625    0.0000 C   0  0  1  0  0  0  0  0  0  0  0  0
   35.8625  -28.1000    0.0000 C   0  0  1  0  0  0  0  0  0  0  0  0
   19.4125  -26.8625    0.0000 C   0  0  1  0  0  0  0  0  0  0  0  0
   43.0167  -28.9250    0.0000 N   0  0  0  0  0  0  0  0  0  0  0  0
   20.8458  -26.8625    0.0000 N   0  0  0  0  0  0  0  0  0  0  0  0
   16.5542  -26.8625    0.0000 N   0  0  0  0  0  0  0  0  0  0  0  0
   37.2917  -28.1000    0.0000 N   0  0  0  0  0  0  0  0  0  0  0  0
   40.1583  -28.1000    0.0000 C   0  0  1  0  0  0  0  0  0  0  0  0
   31.5750  -28.1000    0.0000 C   0  0  1  0  0  0  0  0  0  0  0  0
   25.1375  -26.8625    0.0000 N   0  0  0  0  0  0  0  0  0  0  0  0
   33.0042  -28.1000    0.0000 N   0  0  0  0  0  0  0  0  0  0  0  0
   12.2625  -26.8625    0.0000 N   0  0  0  0  0  0  0  0  0  0  0  0
   22.9917  -26.4500    0.0000 N   0  0  0  0  0  0  0  0  0  0  0  0
    7.2583  -26.4500    0.0000 C   0  0  0  0  0  0  0  0  0  0  0  0
   40.1583  -28.9250    0.0000 C   0  0  0  0  0  0  0  0  0  0  0  0
   31.5750  -28.9250    0.0000 C   0  0  0  0  0  0  0  0  0  0  0  0
    0.1042  -26.4500    0.0000 C   0  0  1  0  0  0  0  0  0  0  0  0
   30.1417  -26.4500    0.0000 C   0  0  1  0  0  0  0  0  0  0  0  0
   42.3000  -27.6875    0.0000 C   0  0  1  0  0  0  0  0  0  0  0  0
   -2.0417  -26.8625    0.0000 C   0  0  1  0  0  0  0  0  0  0  0  0
   43.7333  -29.3375    0.0000 C   0  0  2  0  0  0  0  0  0  0  0  0
   44.4458  -28.9250    0.0000 C   0  0  0  0  0  0  0  0  0  0  0  0
   -2.7542  -26.4500    0.0000 N   0  0  0  0  0  0  0  0  0  0  0  0
   10.1208  -26.4500    0.0000 N   0  0  0  0  0  0  0  0  0  0  0  0
   25.8542  -26.4500    0.0000 C   0  0  1  0  0  0  0  0  0  0  0  0
   40.8667  -29.3375    0.0000 C   0  0  0  0  0  0  0  0  0  0  0  0
   30.8583  -29.3375    0.0000 C   0  0  0  0  0  0  0  0  0  0  0  0
    9.4042  -26.8625    0.0000 C   0  0  0  0  0  0  0  0  0  0  0  0
    7.9750  -26.8625    0.0000 N   0  0  0  0  0  0  0  0  0  0  0  0
   17.2708  -26.4500    0.0000 C   0  0  1  0  0  0  0  0  0  0  0  0
   21.5583  -26.4500    0.0000 C   0  0  1  0  0  0  0  0  0  0  0  0
    4.4000  -26.4500    0.0000 C   0  0  1  0  0  0  0  0  0  0  0  0
   12.9792  -26.4500    0.0000 C   0  0  1  0  0  0  0  0  0  0  0  0
   33.7167  -27.6875    0.0000 C   0  0  1  0  0  0  0  0  0  0  0  0
   38.0083  -27.6875    0.0000 C   0  0  1  0  0  0  0  0  0  0  0  0
   23.7083  -26.8625    0.0000 C   0  0  1  0  0  0  0  0  0  0  0  0
   -3.4708  -26.8625    0.0000 C   0  0  0  0  0  0  0  0  0  0  0  0
   10.8333  -26.8625    0.0000 C   0  0  1  0  0  0  0  0  0  0  0  0
   26.5667  -24.3875    0.0000 C   0  0  0  0  0  0  0  0  0  0  0  0
    2.9625  -25.6250    0.0000 O   0  0  0  0  0  0  0  0  0  0  0  0
   36.5792  -26.8625    0.0000 O   0  0  0  0  0  0  0  0  0  0  0  0
   15.8375  -25.6250    0.0000 O   0  0  0  0  0  0  0  0  0  0  0  0
   20.1292  -25.6250    0.0000 O   0  0  0  0  0  0  0  0  0  0  0  0
   28.7125  -25.6250    0.0000 O   0  0  0  0  0  0  0  0  0  0  0  0
    0.8208  -27.6875    0.0000 O   0  0  0  0  0  0  0  0  0  0  0  0
   13.6958  -27.6875    0.0000 O   0  0  0  0  0  0  0  0  0  0  0  0
   17.9833  -27.6875    0.0000 O   0  0  0  0  0  0  0  0  0  0  0  0
   34.4333  -28.9250    0.0000 O   0  0  0  0  0  0  0  0  0  0  0  0
   40.8667  -26.8625    0.0000 O   0  0  0  0  0  0  0  0  0  0  0  0
   -1.3250  -25.6250    0.0000 O   0  0  0  0  0  0  0  0  0  0  0  0
   31.5750  -26.4500    0.0000 O   0  0  0  0  0  0  0  0  0  0  0  0
   32.2875  -26.8625    0.0000 O   0  0  0  0  0  0  0  0  0  0  0  0
   43.7333  -27.6875    0.0000 O   0  0  0  0  0  0  0  0  0  0  0  0
    5.1083  -27.6875    0.0000 O   0  0  0  0  0  0  0  0  0  0  0  0
   22.2792  -27.6875    0.0000 O   0  0  0  0  0  0  0  0  0  0  0  0
   26.5667  -27.6875    0.0000 O   0  0  0  0  0  0  0  0  0  0  0  0
   38.7208  -28.9250    0.0000 O   0  0  0  0  0  0  0  0  0  0  0  0
   24.4250  -25.6250    0.0000 O   0  0  0  0  0  0  0  0  0  0  0  0
   11.5500  -25.6250    0.0000 O   0  0  0  0  0  0  0  0  0  0  0  0
    0.1042  -25.6250    0.0000 C   0  0  0  0  0  0  0  0  0  0  0  0
   -2.0417  -27.6875    0.0000 C   0  0  0  0  0  0  0  0  0  0  0  0
   43.7333  -30.1667    0.0000 C   0  0  0  0  0  0  0  0  0  0  0  0
    7.2583  -25.6250    0.0000 O   0  0  0  0  0  0  0  0  0  0  0  0
   45.1625  -29.3375    0.0000 O   0  0  0  0  0  0  0  0  0  0  0  0
   42.3000  -26.8625    0.0000 C   0  0  0  0  0  0  0  0  0  0  0  0
   30.1417  -25.6250    0.0000 C   0  0  0  0  0  0  0  0  0  0  0  0
    2.2500  -27.6875    0.0000 C   0  0  2  0  0  0  0  0  0  0  0  0
   40.8667  -30.1667    0.0000 O   0  0  0  0  0  0  0  0  0  0  0  0
   30.1417  -28.9250    0.0000 O   0  0  0  0  0  0  0  0  0  0  0  0
    9.4042  -27.6875    0.0000 O   0  0  0  0  0  0  0  0  0  0  0  0
   -3.4708  -27.6875    0.0000 O   0  0  0  0  0  0  0  0  0  0  0  0
   27.2833  -23.9708    0.0000 O   0  0  0  0  0  0  0  0  0  0  0  0
   25.8542  -25.6250    0.0000 C   0  0  0  0  0  0  0  0  0  0  0  0
    8.6875  -26.4500    0.0000 C   0  0  0  0  0  0  0  0  0  0  0  0
   15.1250  -27.6875    0.0000 C   0  0  0  0  0  0  0  0  0  0  0  0
   35.8625  -28.9250    0.0000 C   0  0  0  0  0  0  0  0  0  0  0  0
   19.4125  -27.6875    0.0000 C   0  0  2  0  0  0  0  0  0  0  0  0
   41.5875  -28.9250    0.0000 N   0  0  0  0  0  0  0  0  0  0  0  0
   26.5667  -25.2083    0.0000 C   0  0  0  0  0  0  0  0  0  0  0  0
    0.8208  -25.2083    0.0000 C   0  0  0  0  0  0  0  0  0  0  0  0
   44.4458  -28.1000    0.0000 O   0  0  0  0  0  0  0  0  0  0  0  0
    2.2458  -24.3833    0.0000 C   0  0  0  0  0  0  0  0  0  0  0  0
   30.8583  -30.1667    0.0000 O   0  0  0  0  0  0  0  0  0  0  0  0
   25.8542  -23.9708    0.0000 O   0  0  0  0  0  0  0  0  0  0  0  0
   44.4458  -30.5792    0.0000 C   0  0  0  0  0  0  0  0  0  0  0  0
   -1.3250  -28.1000    0.0000 C   0  0  0  0  0  0  0  0  0  0  0  0
   28.0000  -27.6875    0.0000 C   0  0  0  0  0  0  0  0  0  0  0  0
    6.5417  -27.6875    0.0000 C   0  0  0  0  0  0  0  0  0  0  0  0
   -4.9000  -26.8625    0.0000 N   0  0  0  0  0  0  0  0  0  0  0  0
    1.5333  -25.6250    0.0000 C   0  0  0  0  0  0  0  0  0  0  0  0
    0.8208  -24.3833    0.0000 C   0  0  0  0  0  0  0  0  0  0  0  0
   14.4083  -23.1458    0.0000 N   0  0  0  0  0  0  0  0  0  0  0  0
   39.4375  -24.3875    0.0000 N   0  0  0  0  0  0  0  0  0  0  0  0
   33.7167  -24.3875    0.0000 N   0  0  0  0  0  0  0  0  0  0  0  0
   25.1375  -30.1667    0.0000 N   0  0  0  0  0  0  0  0  0  0  0  0
   12.2625  -30.1667    0.0000 N   0  0  0  0  0  0  0  0  0  0  0  0
   18.7000  -23.1458    0.0000 N   0  0  0  0  0  0  0  0  0  0  0  0
    2.2458  -25.2083    0.0000 C   0  0  0  0  0  0  0  0  0  0  0  0
    1.5333  -23.9750    0.0000 C   0  0  0  0  0  0  0  0  0  0  0  0
    2.9625  -28.1000    0.0000 O   0  0  0  0  0  0  0  0  0  0  0  0
    2.9625  -23.9750    0.0000 O   0  0  0  0  0  0  0  0  0  0  0  0
   -4.1875  -26.4500    0.0000 C   0  0  0  0  0  0  0  0  0  0  0  0
    7.2583  -28.1000    0.0000 O   0  0  0  0  0  0  0  0  0  0  0  0
   28.7125  -28.1000    0.0000 O   0  0  0  0  0  0  0  0  0  0  0  0
   43.0167  -26.4500    0.0000 C   0  0  0  0  0  0  0  0  0  0  0  0
   30.8583  -25.2083    0.0000 C   0  0  0  0  0  0  0  0  0  0  0  0
   17.2708  -25.6250    0.0000 C   0  0  0  0  0  0  0  0  0  0  0  0
   33.7167  -26.8625    0.0000 C   0  0  0  0  0  0  0  0  0  0  0  0
   23.7083  -27.6875    0.0000 C   0  0  0  0  0  0  0  0  0  0  0  0
   12.9792  -25.6250    0.0000 C   0  0  0  0  0  0  0  0  0  0  0  0
   38.0083  -26.8625    0.0000 C   0  0  0  0  0  0  0  0  0  0  0  0
   10.8333  -27.6875    0.0000 C   0  0  0  0  0  0  0  0  0  0  0  0
    4.4000  -25.6250    0.0000 C   0  0  0  0  0  0  0  0  0  0  0  0
   21.5583  -25.6250    0.0000 C   0  0  0  0  0  0  0  0  0  0  0  0
   12.2625  -29.3375    0.0000 C   0  0  0  0  0  0  0  0  0  0  0  0
   18.7000  -23.9708    0.0000 C   0  0  0  0  0  0  0  0  0  0  0  0
   14.4083  -23.9708    0.0000 C   0  0  0  0  0  0  0  0  0  0  0  0
   33.7167  -25.2083    0.0000 C   0  0  0  0  0  0  0  0  0  0  0  0
   25.1375  -29.3375    0.0000 C   0  0  0  0  0  0  0  0  0  0  0  0
   39.4375  -25.2083    0.0000 C   0  0  0  0  0  0  0  0  0  0  0  0
   18.7000  -28.1000    0.0000 C   0  0  0  0  0  0  0  0  0  0  0  0
    1.5333  -28.1000    0.0000 C   0  0  0  0  0  0  0  0  0  0  0  0
   15.8375  -28.1000    0.0000 C   0  0  0  0  0  0  0  0  0  0  0  0
   14.4083  -28.1000    0.0000 C   0  0  0  0  0  0  0  0  0  0  0  0
   36.5792  -29.3375    0.0000 C   0  0  0  0  0  0  0  0  0  0  0  0
   35.1458  -29.3375    0.0000 C   0  0  0  0  0  0  0  0  0  0  0  0
   20.1292  -28.1000    0.0000 C   0  0  0  0  0  0  0  0  0  0  0  0
   45.1583  -30.1667    0.0000 C   0  0  0  0  0  0  0  0  0  0  0  0
   -1.3250  -28.9250    0.0000 C   0  0  0  0  0  0  0  0  0  0  0  0
   44.4458  -31.4000    0.0000 C   0  0  0  0  0  0  0  0  0  0  0  0
   -0.6083  -27.6875    0.0000 C   0  0  0  0  0  0  0  0  0  0  0  0
   11.5500  -28.1000    0.0000 C   0  0  0  0  0  0  0  0  0  0  0  0
   24.4250  -28.1000    0.0000 C   0  0  0  0  0  0  0  0  0  0  0  0
   38.7208  -26.4500    0.0000 C   0  0  0  0  0  0  0  0  0  0  0  0
   33.0042  -26.4500    0.0000 C   0  0  0  0  0  0  0  0  0  0  0  0
   13.6958  -25.2083    0.0000 C   0  0  0  0  0  0  0  0  0  0  0  0
   17.9833  -25.2083    0.0000 C   0  0  0  0  0  0  0  0  0  0  0  0
   17.9833  -24.3875    0.0000 C   0  0  0  0  0  0  0  0  0  0  0  0
   33.0042  -25.6250    0.0000 C   0  0  0  0  0  0  0  0  0  0  0  0
   38.7208  -25.6250    0.0000 C   0  0  0  0  0  0  0  0  0  0  0  0
   13.6958  -24.3875    0.0000 C   0  0  0  0  0  0  0  0  0  0  0  0
   11.5500  -28.9250    0.0000 C   0  0  0  0  0  0  0  0  0  0  0  0
   24.4250  -28.9250    0.0000 C   0  0  0  0  0  0  0  0  0  0  0  0
   30.8583  -24.3875    0.0000 C   0  0  0  0  0  0  0  0  0  0  0  0
   43.0167  -25.6250    0.0000 C   0  0  0  0  0  0  0  0  0  0  0  0
   43.7333  -26.8625    0.0000 C   0  0  0  0  0  0  0  0  0  0  0  0
   31.5750  -25.6250    0.0000 C   0  0  0  0  0  0  0  0  0  0  0  0
   18.7000  -28.9250    0.0000 C   0  0  0  0  0  0  0  0  0  0  0  0
   -0.6083  -29.3375    0.0000 C   0  0  0  0  0  0  0  0  0  0  0  0
   45.1583  -31.8167    0.0000 C   0  0  0  0  0  0  0  0  0  0  0  0
   45.8708  -30.5792    0.0000 C   0  0  0  0  0  0  0  0  0  0  0  0
    0.1000  -28.1000    0.0000 C   0  0  0  0  0  0  0  0  0  0  0  0
    0.1000  -28.9250    0.0000 C   0  0  0  0  0  0  0  0  0  0  0  0
   45.8708  -31.4000    0.0000 C   0  0  0  0  0  0  0  0  0  0  0  0
  1  2  1  0  0  0  0
  1  3  1  6  0  0  0
 36  4  1  0  0  0  0
 38  5  1  0  0  0  0
 37  6  1  0  0  0  0
  7 14  1  0  0  0  0
  8 12  1  0  0  0  0
  9 13  1  0  0  0  0
 10  3  1  0  0  0  0
 28 11  1  0  0  0  0
 69 12  1  0  0  0  0
 65 13  1  0  0  0  0
 68 14  1  0  0  0  0
 43 15  1  0  0  0  0
 44 16  1  0  0  0  0
 54 17  1  0  0  0  0
 53 18  1  0  0  0  0
 19 35  1  0  0  0  0
 60 20  1  0  0  0  0
 67 21  1  0  0  0  0
 70 22  1  0  0  0  0
 66 23  1  0  0  0  0
 71 24  1  0  0  0  0
 73 25  1  0  0  0  0
 26 20  1  0  0  0  0
 27 21  1  0  0  0  0
 28 26  1  6  0  0  0
 29 18  1  0  0  0  0
 30 11  1  0  0  0  0
 31 22  1  0  0  0  0
 32  2  1  0  0  0  0
 33 27  1  6  0  0  0
 34 15  1  0  0  0  0
 52 35  1  1  0  0  0
 36  7  1  6  0  0  0
 37  8  1  6  0  0  0
 38  9  1  6  0  0  0
 39 17  1  0  0  0  0
 40  5  1  0  0  0  0
 41  4  1  0  0  0  0
 42  6  1  0  0  0  0
 43 31  1  6  0  0  0
 44 29  1  6  0  0  0
 45 24  1  0  0  0  0
 46 16  1  0  0  0  0
 47 25  1  0  0  0  0
 48 23  1  0  0  0  0
 33 49  1  0  0  0  0
 43 50  1  0  0  0  0
 44 51  1  0  0  0  0
 52 10  1  0  0  0  0
 53 30  1  1  0  0  0
 54 34  1  1  0  0  0
 55 19  1  0  0  0  0
 56 39  1  6  0  0  0
 56 57  1  0  0  0  0
 55 58  1  6  0  0  0
 59 63  1  0  0  0  0
 60 45  1  1  0  0  0
 61 50  1  0  0  0  0
 62 51  1  0  0  0  0
 63109  1  0  0  0  0
 64 49  1  0  0  0  0
 65 41  1  1  0  0  0
 66 40  1  0  0  0  0
 67 32  1  0  0  0  0
 68 47  1  1  0  0  0
 69 46  1  1  0  0  0
 70 42  1  1  0  0  0
 71 48  1  6  0  0  0
 72 58  1  0  0  0  0
 73 59  1  6  0  0  0
 74114  1  0  0  0  0
 75  2  2  0  0  0  0
 76  6  2  0  0  0  0
 77  4  2  0  0  0  0
 78  5  2  0  0  0  0
 79 11  2  0  0  0  0
 80 10  2  0  0  0  0
 81 14  2  0  0  0  0
 82 13  2  0  0  0  0
 83 12  2  0  0  0  0
 84 15  2  0  0  0  0
 85 19  2  0  0  0  0
 86 18  2  0  0  0  0
 87 16  2  0  0  0  0
 88 17  2  0  0  0  0
 89 21  2  0  0  0  0
 90 23  2  0  0  0  0
 91 20  2  0  0  0  0
 92 22  2  0  0  0  0
 93 24  2  0  0  0  0
 94 25  2  0  0  0  0
 52 95  1  0  0  0  0
 55 96  1  0  0  0  0
 56 97  1  0  0  0  0
 98 49  2  0  0  0  0
 99 57  2  0  0  0  0
 54100  1  0  0  0  0
 53101  1  0  0  0  0
  1102  1  0  0  0  0
103 61  2  0  0  0  0
104 62  2  0  0  0  0
105 63  2  0  0  0  0
106 72  2  0  0  0  0
107 74  2  0  0  0  0
 60108  1  0  0  0  0
109 64  1  0  0  0  0
 36110  1  0  0  0  0
 37111  1  0  0  0  0
 38112  1  0  0  0  0
113 61  1  0  0  0  0
114108  1  0  0  0  0
115 95  1  0  0  0  0
116 57  1  0  0  0  0
117133  2  0  0  0  0
118 62  1  0  0  0  0
119 74  1  0  0  0  0
120 97  1  0  0  0  0
121 96  1  0  0  0  0
 28122  1  0  0  0  0
 33123  1  0  0  0  0
124137  1  0  0  0  0
125115  2  0  0  0  0
126115  1  0  0  0  0
127152  1  0  0  0  0
128155  1  0  0  0  0
129153  1  0  0  0  0
130154  1  0  0  0  0
131150  1  0  0  0  0
132151  1  0  0  0  0
133125  1  0  0  0  0
134126  2  0  0  0  0
102135  1  6  0  0  0
136117  1  0  0  0  0
137 72  1  0  0  0  0
138123  1  0  0  0  0
139122  1  0  0  0  0
140100  1  0  0  0  0
141101  1  0  0  0  0
 65142  1  0  0  0  0
 69143  1  0  0  0  0
 71144  1  0  0  0  0
 68145  1  0  0  0  0
 70146  1  0  0  0  0
 73147  1  0  0  0  0
 67148  1  1  0  0  0
 66149  1  1  0  0  0
150177  1  0  0  0  0
151173  1  0  0  0  0
152176  1  0  0  0  0
153174  1  0  0  0  0
154178  1  0  0  0  0
155175  1  0  0  0  0
112156  1  0  0  0  0
102157  1  0  0  0  0
158110  1  0  0  0  0
159110  1  0  0  0  0
160111  1  0  0  0  0
161111  1  0  0  0  0
112162  1  1  0  0  0
163120  2  0  0  0  0
164121  2  0  0  0  0
165120  1  0  0  0  0
166121  1  0  0  0  0
167147  1  0  0  0  0
168144  1  0  0  0  0
169146  1  0  0  0  0
170143  1  0  0  0  0
171145  1  0  0  0  0
172142  1  0  0  0  0
173172  1  0  0  0  0
174170  1  0  0  0  0
175169  1  0  0  0  0
176171  1  0  0  0  0
177167  1  0  0  0  0
178168  1  0  0  0  0
179141  1  0  0  0  0
180140  1  0  0  0  0
181140  1  0  0  0  0
182141  1  0  0  0  0
183156  1  0  0  0  0
184164  1  0  0  0  0
185165  2  0  0  0  0
186163  1  0  0  0  0
187166  2  0  0  0  0
188187  1  0  0  0  0
189185  1  0  0  0  0
134117  1  0  0  0  0
184188  2  0  0  0  0
186189  2  0  0  0  0
M  END
> <From>
www.bindingDB.org

> <BindingDB Reactant_set_id>
51016960

> <Ligand InChI>
InChI=1S/C124H203N31O34/c1-14-70(10)101(154-112(176)83(42-26-32-54-130)143-121(185)100(69(8)9)152-110(174)81(40-24-30-52-128)139-106(170)78(37-21-27-49-125)136-96(162)63-133-105(169)92(64-156)150-104(168)72(12)135-123(187)102(73(13)158)155-118(182)88(58-76-43-45-77(159)46-44-76)146-115(179)87(137-95(161)62-131)57-74-33-17-15-18-34-74)122(186)134-71(11)103(167)138-79(38-22-28-50-126)107(171)141-84(47-48-97(163)164)109(173)151-93(65-157)119(183)145-85(55-66(2)3)113(177)148-90(61-98(165)166)117(181)140-82(41-25-31-53-129)111(175)153-99(68(6)7)120(184)142-80(39-23-29-51-127)108(172)147-89(60-94(132)160)116(180)144-86(56-67(4)5)114(178)149-91(124(188)189)59-75-35-19-16-20-36-75/h15-20,33-36,43-46,66-73,78-93,99-102,156-159H,14,21-32,37-42,47-65,125-131H2,1-13H3,(H2,132,160)(H,133,169)(H,134,186)(H,135,187)(H,136,162)(H,137,161)(H,138,167)(H,139,170)(H,140,181)(H,141,171)(H,142,184)(H,143,185)(H,144,180)(H,145,183)(H,146,179)(H,147,172)(H,148,177)(H,149,178)(H,150,168)(H,151,173)(H,152,174)(H,153,175)(H,154,176)(H,155,182)(H,163,164)(H,165,166)(H,188,189)/t70-,71-,72-,73+,78-,79-,80-,81-,82-,83-,84-,85-,86-,87-,88-,89-,90-,91-,92-,93-,99-,100-,101-,102-/m0/s1

> <Ligand InChI Key>
UDGZBBHEGKQNQU-JNVWVPGISA-N

> <BindingDB MonomerID>
50416566

> <BindingDB Ligand Name>
CHEMBL1215815

> <Target Name>
DNA repair protein RAD51 homolog 1

> <Target Source Organism According to Curator or DataSource>
Homo sapiens

> <Ki (nM)>


> <IC50 (nM)>
 2700

> <Kd (nM)>


> <EC50 (nM)>


> <kon (M-1-s-1)>


> <koff (s-1)>


> <pH>


> <Temp C>


> <Curation/DataSource>
ChEMBL

> <Article DOI>
10.1021/jm1002974

> <BindingDB Entry DOI>
10.7270/Q2NG4RV5

> <PMID>
20684611

> <PubChem AID>


> <Patent Number>


> <Authors>
Nomme, J; Renodon-Corniere, A; Asanomi, Y; Sakaguchi, K; Stasiak, AZ; Stasiak, A; Norden, B; Tran, V; Takahashi, M

> <Date of publication>
8/5/2010

> <Date in BindingDB>
5/22/2013

> <Institution>
Centre National de la Recherche Scientifique & Universite de Nantes

> <Link to Ligand in BindingDB>
http://www.bindingdb.org/bind/chemsearch/marvin/MolStructure.jsp?monomerid=50416566

> <Link to Ligand-Target Pair in BindingDB>
http://www.bindingdb.org/jsp/dbsearch/PrimarySearch_ki.jsp?energyterm=kJ/mole&tag=pol&polymerid=4676&target=DNA+repair+protein+RAD51+homolog+1&column=ki&startPg=0&Increment=50&submit=Search

> <Link to Ligand-Target Pair in BindingDB>
http://www.bindingdb.org/jsp/dbsearch/PrimarySearch_ki.jsp?energyterm=kJ/mole&tag=r21&monomerid=50416566&enzyme=DNA+repair+protein+RAD51+homolog+1&column=ki&startPg=0&Increment=50&submit=Search

> <Ligand HET ID in PDB>


> <PDB ID(s) for Ligand-Target Complex>


> <PubChem CID of Ligand>
46899803

> <PubChem SID of Ligand>
163365590

> <ChEBI ID of Ligand>


> <ChEMBL ID of Ligand>
CHEMBL1215815

> <DrugBank ID of Ligand>


> <IUPHAR_GRAC ID of Ligand>


> <KEGG ID of Ligand>


> <ZINC ID of Ligand>


> <Number of Protein Chains in Target (bigger than 1 implies a multichain complex)>
1

> <BindingDB Target Chain Sequence>
MAMQMQLEANADTSVEEESFGPQPISRLEQCGINANDVKKLEEAGFHTVEAVAYAPKKELINIKGISEAKADKILAEAAKLVPMGFTTATEFHQRRSEIIQITTGSKELDKLLQGGIETGSITEMFGEFRTGKTQICHTLAVTCQLPIDRGGGEGKAMYIDTEGTFRPERLLAVAERYGLSGSDVLDNVAYARAFNTDHQTQLLYQASAMMVESRYALLIVDSATALYRTDYSGRGELSARQMHLARFLRMLLRLADEFGVAVVITNQVVAQVDGAAMFAADPKKPIGGNIIAHASTTRLYLRKGRGETRICKIYDSPCLPEAEAMFAINADGVGDAKD

> <PDB ID(s) of Target Chain>
1N0W,5JZC,5NP7,5NWL,8BQ2,8BR2,8BSC

> <UniProt (SwissProt) Recommended Name of Target Chain>
DNA repair protein RAD51 homolog 1

> <UniProt (SwissProt) Entry Name of Target Chain>
RAD51_HUMAN

> <UniProt (SwissProt) Primary ID of Target Chain>
Q06609

> <UniProt (SwissProt) Secondary ID(s) of Target Chain>
B0FXP0 B2R8T6 Q6FHX9 Q6ZNA8 Q9BV60

> <UniProt (SwissProt) Alternative ID(s) of Target Chain>


> <UniProt (TrEMBL) Submitted Name of Target Chain>


> <UniProt (TrEMBL) Entry Name of Target Chain>


> <UniProt (TrEMBL) Primary ID of Target Chain>


> <UniProt (TrEMBL) Secondary ID(s) of Target Chain>


> <UniProt (TrEMBL) Alternative ID(s) of Target Chain>


$$$$

  Mrv0541 11241415252D          

188190  0  0  0  0            999 V2000
    1.3667  -10.3417    0.0000 C   0  0  1  0  0  0  0  0  0  0  0  0
    2.0958   -9.9250    0.0000 C   0  0  0  0  0  0  0  0  0  0  0  0
    0.6625   -9.9333    0.0000 N   0  0  0  0  0  0  0  0  0  0  0  0
   19.3125   -9.8000    0.0000 C   0  0  0  0  0  0  0  0  0  0  0  0
   15.0083   -9.8292    0.0000 C   0  0  0  0  0  0  0  0  0  0  0  0
   36.5333   -9.6750    0.0000 C   0  0  0  0  0  0  0  0  0  0  0  0
   13.5708   -9.8417    0.0000 N   0  0  0  0  0  0  0  0  0  0  0  0
   35.0958   -9.6833    0.0000 N   0  0  0  0  0  0  0  0  0  0  0  0
   17.8792   -9.8083    0.0000 N   0  0  0  0  0  0  0  0  0  0  0  0
   -0.0667  -10.3542    0.0000 C   0  0  0  0  0  0  0  0  0  0  0  0
   27.9208   -9.7375    0.0000 C   0  0  0  0  0  0  0  0  0  0  0  0
   21.4542  -10.1958    0.0000 C   0  0  0  0  0  0  0  0  0  0  0  0
   34.3708  -10.1042    0.0000 C   0  0  0  0  0  0  0  0  0  0  0  0
   12.8458  -10.2583    0.0000 C   0  0  0  0  0  0  0  0  0  0  0  0
   17.1542  -10.2292    0.0000 C   0  0  0  0  0  0  0  0  0  0  0  0
   40.8333   -9.6417    0.0000 C   0  0  0  0  0  0  0  0  0  0  0  0
   32.2250   -9.7042    0.0000 C   0  0  0  0  0  0  0  0  0  0  0  0
   30.0625  -10.1333    0.0000 C   0  0  0  0  0  0  0  0  0  0  0  0
   42.9750  -10.0417    0.0000 C   0  0  0  0  0  0  0  0  0  0  0  0
   -2.2125   -9.9542    0.0000 C   0  0  0  0  0  0  0  0  0  0  0  0
   20.0208  -10.2083    0.0000 N   0  0  0  0  0  0  0  0  0  0  0  0
   25.7625  -10.1667    0.0000 C   0  0  0  0  0  0  0  0  0  0  0  0
    4.2375  -10.3208    0.0000 C   0  0  0  0  0  0  0  0  0  0  0  0
   38.6750  -10.0708    0.0000 C   0  0  0  0  0  0  0  0  0  0  0  0
   23.6167   -9.7667    0.0000 C   0  0  0  0  0  0  0  0  0  0  0  0
   10.7042   -9.8625    0.0000 C   0  0  0  0  0  0  0  0  0  0  0  0
   26.4875   -9.7458    0.0000 N   0  0  0  0  0  0  0  0  0  0  0  0
    4.9625   -9.9042    0.0000 N   0  0  0  0  0  0  0  0  0  0  0  0
   20.7458   -9.7875    0.0000 C   0  0  1  0  0  0  0  0  0  0  0  0
   27.1958  -10.1542    0.0000 C   0  0  1  0  0  0  0  0  0  0  0  0
   30.7917   -9.7167    0.0000 N   0  0  0  0  0  0  0  0  0  0  0  0
   28.6292  -10.1458    0.0000 N   0  0  0  0  0  0  0  0  0  0  0  0
   39.4000   -9.6542    0.0000 N   0  0  0  0  0  0  0  0  0  0  0  0
   -1.5000  -10.3625    0.0000 N   0  0  0  0  0  0  0  0  0  0  0  0
    2.8042  -10.3333    0.0000 N   0  0  0  0  0  0  0  0  0  0  0  0
    5.6708  -10.3125    0.0000 C   0  0  2  0  0  0  0  0  0  0  0  0
   41.5417  -10.0500    0.0000 N   0  0  0  0  0  0  0  0  0  0  0  0
   14.2792  -10.2500    0.0000 C   0  0  1  0  0  0  0  0  0  0  0  0
   35.8042  -10.0917    0.0000 C   0  0  1  0  0  0  0  0  0  0  0  0
   18.5875  -10.2167    0.0000 C   0  0  1  0  0  0  0  0  0  0  0  0
   43.7083   -9.6208    0.0000 N   0  0  0  0  0  0  0  0  0  0  0  0
   15.7125  -10.2375    0.0000 N   0  0  0  0  0  0  0  0  0  0  0  0
   37.2417  -10.0833    0.0000 N   0  0  0  0  0  0  0  0  0  0  0  0
   31.5000  -10.1250    0.0000 C   0  0  1  0  0  0  0  0  0  0  0  0
   40.1083  -10.0625    0.0000 C   0  0  1  0  0  0  0  0  0  0  0  0
   22.1833   -9.7792    0.0000 N   0  0  0  0  0  0  0  0  0  0  0  0
   24.3292  -10.1750    0.0000 N   0  0  0  0  0  0  0  0  0  0  0  0
   32.9333  -10.1125    0.0000 N   0  0  0  0  0  0  0  0  0  0  0  0
   11.4125  -10.2708    0.0000 N   0  0  0  0  0  0  0  0  0  0  0  0
    6.3958   -9.8917    0.0000 C   0  0  0  0  0  0  0  0  0  0  0  0
   -0.7750   -9.9458    0.0000 C   0  0  1  0  0  0  0  0  0  0  0  0
   40.1083  -10.8792    0.0000 C   0  0  0  0  0  0  0  0  0  0  0  0
   31.5000  -10.9417    0.0000 C   0  0  0  0  0  0  0  0  0  0  0  0
   29.3583   -9.7250    0.0000 C   0  0  1  0  0  0  0  0  0  0  0  0
   42.2667   -9.6333    0.0000 C   0  0  1  0  0  0  0  0  0  0  0  0
    1.2000   -8.2833    0.0000 N   0  0  0  0  0  0  0  0  0  0  0  0
   -2.9333  -10.3667    0.0000 C   0  0  1  0  0  0  0  0  0  0  0  0
   44.4167  -10.0292    0.0000 C   0  0  2  0  0  0  0  0  0  0  0  0
   45.1417   -9.6125    0.0000 C   0  0  0  0  0  0  0  0  0  0  0  0
   -3.6458   -9.9583    0.0000 N   0  0  0  0  0  0  0  0  0  0  0  0
   -0.0667   -8.6958    0.0000 C   0  0  0  0  0  0  0  0  0  0  0  0
    9.2708   -9.8708    0.0000 N   0  0  0  0  0  0  0  0  0  0  0  0
   25.0542   -9.7583    0.0000 C   0  0  1  0  0  0  0  0  0  0  0  0
   -0.7750   -9.1083    0.0000 C   0  0  0  0  0  0  0  0  0  0  0  0
   40.8333  -11.3000    0.0000 C   0  0  0  0  0  0  0  0  0  0  0  0
   -0.0667   -7.8583    0.0000 N   0  0  0  0  0  0  0  0  0  0  0  0
   32.2250  -11.3583    0.0000 C   0  0  0  0  0  0  0  0  0  0  0  0
    8.5417  -10.2917    0.0000 C   0  0  0  0  0  0  0  0  0  0  0  0
    7.1083  -10.3000    0.0000 N   0  0  0  0  0  0  0  0  0  0  0  0
   16.4458   -9.8208    0.0000 C   0  0  1  0  0  0  0  0  0  0  0  0
    3.5292   -9.9125    0.0000 C   0  0  1  0  0  0  0  0  0  0  0  0
   33.6583   -9.6958    0.0000 C   0  0  1  0  0  0  0  0  0  0  0  0
   12.1375   -9.8500    0.0000 C   0  0  1  0  0  0  0  0  0  0  0  0
   37.9667   -9.6625    0.0000 C   0  0  1  0  0  0  0  0  0  0  0  0
   22.8875  -10.1875    0.0000 C   0  0  1  0  0  0  0  0  0  0  0  0
    0.7167   -7.6083    0.0000 C   0  0  0  0  0  0  0  0  0  0  0  0
   -4.3667  -10.3708    0.0000 C   0  0  0  0  0  0  0  0  0  0  0  0
    9.9792  -10.2792    0.0000 C   0  0  1  0  0  0  0  0  0  0  0  0
   25.7625   -7.6667    0.0000 C   0  0  0  0  0  0  0  0  0  0  0  0
    0.7125   -8.9458    0.0000 C   0  0  0  0  0  0  0  0  0  0  0  0
    2.0958   -9.0875    0.0000 O   0  0  0  0  0  0  0  0  0  0  0  0
   19.3125   -8.9583    0.0000 O   0  0  0  0  0  0  0  0  0  0  0  0
   15.0083   -8.9917    0.0000 O   0  0  0  0  0  0  0  0  0  0  0  0
   36.5333   -8.8333    0.0000 O   0  0  0  0  0  0  0  0  0  0  0  0
   21.4542  -11.0125    0.0000 O   0  0  0  0  0  0  0  0  0  0  0  0
   27.9208   -8.9000    0.0000 O   0  0  0  0  0  0  0  0  0  0  0  0
   -0.0667  -11.1708    0.0000 O   0  0  0  0  0  0  0  0  0  0  0  0
   17.1542  -11.0458    0.0000 O   0  0  0  0  0  0  0  0  0  0  0  0
   34.3708  -10.9208    0.0000 O   0  0  0  0  0  0  0  0  0  0  0  0
   12.8458  -11.0750    0.0000 O   0  0  0  0  0  0  0  0  0  0  0  0
   42.9750  -10.8583    0.0000 O   0  0  0  0  0  0  0  0  0  0  0  0
   32.2250   -8.8667    0.0000 O   0  0  0  0  0  0  0  0  0  0  0  0
   30.0625  -10.9500    0.0000 O   0  0  0  0  0  0  0  0  0  0  0  0
   40.8333   -8.8042    0.0000 O   0  0  0  0  0  0  0  0  0  0  0  0
   -2.2125   -9.1167    0.0000 O   0  0  0  0  0  0  0  0  0  0  0  0
   38.6750  -10.8875    0.0000 O   0  0  0  0  0  0  0  0  0  0  0  0
   23.6167   -8.9292    0.0000 O   0  0  0  0  0  0  0  0  0  0  0  0
   25.7625  -10.9833    0.0000 O   0  0  0  0  0  0  0  0  0  0  0  0
   10.7042   -9.0250    0.0000 O   0  0  0  0  0  0  0  0  0  0  0  0
    4.2375  -11.1375    0.0000 O   0  0  0  0  0  0  0  0  0  0  0  0
   -2.9333  -11.1917    0.0000 C   0  0  0  0  0  0  0  0  0  0  0  0
   44.4167  -10.8458    0.0000 C   0  0  0  0  0  0  0  0  0  0  0  0
    6.3958   -9.0542    0.0000 O   0  0  0  0  0  0  0  0  0  0  0  0
   45.1417   -8.7708    0.0000 O   0  0  0  0  0  0  0  0  0  0  0  0
   42.2667   -8.7958    0.0000 C   0  0  0  0  0  0  0  0  0  0  0  0
   29.3583   -8.8875    0.0000 C   0  0  0  0  0  0  0  0  0  0  0  0
    1.3667  -11.1583    0.0000 C   0  0  2  0  0  0  0  0  0  0  0  0
   40.8333  -12.1208    0.0000 O   0  0  0  0  0  0  0  0  0  0  0  0
   32.2250  -12.1792    0.0000 O   0  0  0  0  0  0  0  0  0  0  0  0
    8.5417  -11.1083    0.0000 O   0  0  0  0  0  0  0  0  0  0  0  0
   -4.3667  -11.2000    0.0000 O   0  0  0  0  0  0  0  0  0  0  0  0
   26.4708   -7.2583    0.0000 O   0  0  0  0  0  0  0  0  0  0  0  0
   25.0542   -8.9167    0.0000 C   0  0  0  0  0  0  0  0  0  0  0  0
    7.8375   -9.8833    0.0000 C   0  0  0  0  0  0  0  0  0  0  0  0
   35.8042  -10.9083    0.0000 C   0  0  0  0  0  0  0  0  0  0  0  0
   14.2792  -11.0667    0.0000 C   0  0  0  0  0  0  0  0  0  0  0  0
   18.5875  -11.0333    0.0000 C   0  0  2  0  0  0  0  0  0  0  0  0
   41.5625  -10.8792    0.0000 N   0  0  0  0  0  0  0  0  0  0  0  0
   25.7625   -8.5083    0.0000 C   0  0  0  0  0  0  0  0  0  0  0  0
   45.8500  -10.0208    0.0000 O   0  0  0  0  0  0  0  0  0  0  0  0
   32.9500  -10.9417    0.0000 O   0  0  0  0  0  0  0  0  0  0  0  0
   25.0375   -7.2500    0.0000 O   0  0  0  0  0  0  0  0  0  0  0  0
   45.1417  -11.2708    0.0000 C   0  0  0  0  0  0  0  0  0  0  0  0
   -2.2083  -11.6083    0.0000 C   0  0  0  0  0  0  0  0  0  0  0  0
   20.7458   -8.9500    0.0000 C   0  0  0  0  0  0  0  0  0  0  0  0
   27.1958  -10.9708    0.0000 C   0  0  0  0  0  0  0  0  0  0  0  0
    5.6708  -11.1292    0.0000 C   0  0  0  0  0  0  0  0  0  0  0  0
   -5.8042  -10.3792    0.0000 N   0  0  0  0  0  0  0  0  0  0  0  0
   17.8625   -6.4833    0.0000 N   0  0  0  0  0  0  0  0  0  0  0  0
   13.5542   -6.5167    0.0000 N   0  0  0  0  0  0  0  0  0  0  0  0
   11.4292  -13.5750    0.0000 N   0  0  0  0  0  0  0  0  0  0  0  0
   39.3833   -6.3292    0.0000 N   0  0  0  0  0  0  0  0  0  0  0  0
   35.0792   -6.3583    0.0000 N   0  0  0  0  0  0  0  0  0  0  0  0
   24.3417  -13.4792    0.0000 N   0  0  0  0  0  0  0  0  0  0  0  0
    2.0958  -11.5792    0.0000 O   0  0  0  0  0  0  0  0  0  0  0  0
   -5.0833   -9.9583    0.0000 C   0  0  0  0  0  0  0  0  0  0  0  0
   21.4542   -8.5417    0.0000 O   0  0  0  0  0  0  0  0  0  0  0  0
    6.3958  -11.5500    0.0000 O   0  0  0  0  0  0  0  0  0  0  0  0
   27.9208  -11.3917    0.0000 O   0  0  0  0  0  0  0  0  0  0  0  0
   42.9750   -8.3875    0.0000 C   0  0  0  0  0  0  0  0  0  0  0  0
   30.0625   -8.4792    0.0000 C   0  0  0  0  0  0  0  0  0  0  0  0
   16.4458   -8.9833    0.0000 C   0  0  0  0  0  0  0  0  0  0  0  0
   22.8875  -11.0042    0.0000 C   0  0  0  0  0  0  0  0  0  0  0  0
   37.9667   -8.8250    0.0000 C   0  0  0  0  0  0  0  0  0  0  0  0
   12.1375   -9.0125    0.0000 C   0  0  0  0  0  0  0  0  0  0  0  0
   33.6583   -8.8583    0.0000 C   0  0  0  0  0  0  0  0  0  0  0  0
    9.9792  -11.0958    0.0000 C   0  0  0  0  0  0  0  0  0  0  0  0
    3.5292   -9.0750    0.0000 C   0  0  0  0  0  0  0  0  0  0  0  0
   24.3417  -12.6625    0.0000 C   0  0  0  0  0  0  0  0  0  0  0  0
   39.3833   -7.1667    0.0000 C   0  0  0  0  0  0  0  0  0  0  0  0
   17.8625   -7.3208    0.0000 C   0  0  0  0  0  0  0  0  0  0  0  0
   13.5542   -7.3542    0.0000 C   0  0  0  0  0  0  0  0  0  0  0  0
   11.4292  -12.7583    0.0000 C   0  0  0  0  0  0  0  0  0  0  0  0
   35.0792   -7.1958    0.0000 C   0  0  0  0  0  0  0  0  0  0  0  0
   17.8792  -11.4417    0.0000 C   0  0  0  0  0  0  0  0  0  0  0  0
    0.6625  -11.5667    0.0000 C   0  0  0  0  0  0  0  0  0  0  0  0
   13.5708  -11.4750    0.0000 C   0  0  0  0  0  0  0  0  0  0  0  0
   15.0083  -11.4833    0.0000 C   0  0  0  0  0  0  0  0  0  0  0  0
   36.5333  -11.3333    0.0000 C   0  0  0  0  0  0  0  0  0  0  0  0
   35.0958  -11.3208    0.0000 C   0  0  0  0  0  0  0  0  0  0  0  0
   19.3125  -11.4542    0.0000 C   0  0  0  0  0  0  0  0  0  0  0  0
   45.1500  -12.0833    0.0000 C   0  0  0  0  0  0  0  0  0  0  0  0
   -1.4875  -11.1833    0.0000 C   0  0  0  0  0  0  0  0  0  0  0  0
   45.8583  -10.8417    0.0000 C   0  0  0  0  0  0  0  0  0  0  0  0
   -2.1958  -12.4292    0.0000 C   0  0  0  0  0  0  0  0  0  0  0  0
   17.1542   -8.5750    0.0000 C   0  0  0  0  0  0  0  0  0  0  0  0
   10.7042  -11.5167    0.0000 C   0  0  0  0  0  0  0  0  0  0  0  0
   12.8458   -8.6042    0.0000 C   0  0  0  0  0  0  0  0  0  0  0  0
   23.6167  -11.4208    0.0000 C   0  0  0  0  0  0  0  0  0  0  0  0
   38.6750   -8.4167    0.0000 C   0  0  0  0  0  0  0  0  0  0  0  0
   34.3708   -8.4458    0.0000 C   0  0  0  0  0  0  0  0  0  0  0  0
   17.1542   -7.7375    0.0000 C   0  0  0  0  0  0  0  0  0  0  0  0
   23.6167  -12.2458    0.0000 C   0  0  0  0  0  0  0  0  0  0  0  0
   12.8458   -7.7625    0.0000 C   0  0  0  0  0  0  0  0  0  0  0  0
   34.3708   -7.6083    0.0000 C   0  0  0  0  0  0  0  0  0  0  0  0
   38.6750   -7.5792    0.0000 C   0  0  0  0  0  0  0  0  0  0  0  0
   10.7042  -12.3375    0.0000 C   0  0  0  0  0  0  0  0  0  0  0  0
   30.0625   -7.6417    0.0000 C   0  0  0  0  0  0  0  0  0  0  0  0
   42.9750   -7.5458    0.0000 C   0  0  0  0  0  0  0  0  0  0  0  0
   43.6875   -8.7958    0.0000 C   0  0  0  0  0  0  0  0  0  0  0  0
   30.7750   -8.8875    0.0000 C   0  0  0  0  0  0  0  0  0  0  0  0
   17.8792  -12.2875    0.0000 C   0  0  0  0  0  0  0  0  0  0  0  0
   -0.7708  -11.5917    0.0000 C   0  0  0  0  0  0  0  0  0  0  0  0
   46.5792  -11.2500    0.0000 C   0  0  0  0  0  0  0  0  0  0  0  0
   45.8708  -12.4917    0.0000 C   0  0  0  0  0  0  0  0  0  0  0  0
   -1.4792  -12.8333    0.0000 C   0  0  0  0  0  0  0  0  0  0  0  0
   -0.7667  -12.4167    0.0000 C   0  0  0  0  0  0  0  0  0  0  0  0
   46.5833  -12.0750    0.0000 C   0  0  0  0  0  0  0  0  0  0  0  0
  1  2  1  0  0  0  0
  1  3  1  6  0  0  0
 40  4  1  0  0  0  0
 38  5  1  0  0  0  0
 39  6  1  0  0  0  0
  7 14  1  0  0  0  0
  8 13  1  0  0  0  0
  9 15  1  0  0  0  0
 10  3  1  0  0  0  0
 30 11  1  0  0  0  0
 29 12  1  0  0  0  0
 72 13  1  0  0  0  0
 73 14  1  0  0  0  0
 70 15  1  0  0  0  0
 45 16  1  0  0  0  0
 44 17  1  0  0  0  0
 54 18  1  0  0  0  0
 55 19  1  0  0  0  0
 20 34  1  0  0  0  0
 21  4  1  0  0  0  0
 63 22  1  0  0  0  0
 71 23  1  0  0  0  0
 74 24  1  0  0  0  0
 75 25  1  0  0  0  0
 78 26  1  0  0  0  0
 27 22  1  0  0  0  0
 28 23  1  0  0  0  0
 29 21  1  1  0  0  0
 30 27  1  6  0  0  0
 31 18  1  0  0  0  0
 32 11  1  0  0  0  0
 33 24  1  0  0  0  0
 51 34  1  1  0  0  0
 35  2  1  0  0  0  0
 36 28  1  6  0  0  0
 37 16  1  0  0  0  0
 38  7  1  6  0  0  0
 39  8  1  6  0  0  0
 40  9  1  6  0  0  0
 41 19  1  0  0  0  0
 42  5  1  0  0  0  0
 43  6  1  0  0  0  0
 44 31  1  6  0  0  0
 45 33  1  6  0  0  0
 46 12  1  0  0  0  0
 47 25  1  0  0  0  0
 48 17  1  0  0  0  0
 49 26  1  0  0  0  0
 36 50  1  0  0  0  0
 51 10  1  0  0  0  0
 45 52  1  0  0  0  0
 44 53  1  0  0  0  0
 54 32  1  1  0  0  0
 55 37  1  1  0  0  0
 56 80  1  0  0  0  0
 57 20  1  0  0  0  0
 58 41  1  6  0  0  0
 58 59  1  0  0  0  0
 57 60  1  6  0  0  0
 61 64  1  0  0  0  0
 62 68  1  0  0  0  0
 63 47  1  1  0  0  0
 51 64  1  0  0  0  0
 65 52  1  0  0  0  0
 66 61  1  0  0  0  0
 67 53  1  0  0  0  0
 68114  1  0  0  0  0
 69 50  1  0  0  0  0
 70 42  1  1  0  0  0
 71 35  1  0  0  0  0
 72 48  1  1  0  0  0
 73 49  1  1  0  0  0
 74 43  1  1  0  0  0
 75 46  1  6  0  0  0
 76 66  1  0  0  0  0
 77 60  1  0  0  0  0
 78 62  1  6  0  0  0
 79119  1  0  0  0  0
 80 61  2  0  0  0  0
 81  2  2  0  0  0  0
 82  4  2  0  0  0  0
 83  5  2  0  0  0  0
 84  6  2  0  0  0  0
 85 12  2  0  0  0  0
 86 11  2  0  0  0  0
 87 10  2  0  0  0  0
 88 15  2  0  0  0  0
 89 13  2  0  0  0  0
 90 14  2  0  0  0  0
 91 19  2  0  0  0  0
 92 17  2  0  0  0  0
 93 18  2  0  0  0  0
 94 16  2  0  0  0  0
 95 20  2  0  0  0  0
 96 24  2  0  0  0  0
 97 25  2  0  0  0  0
 98 22  2  0  0  0  0
 99 26  2  0  0  0  0
100 23  2  0  0  0  0
 57101  1  0  0  0  0
 58102  1  0  0  0  0
103 50  2  0  0  0  0
104 59  2  0  0  0  0
 55105  1  0  0  0  0
 54106  1  0  0  0  0
  1107  1  0  0  0  0
108 65  2  0  0  0  0
109 67  2  0  0  0  0
110 68  2  0  0  0  0
111 77  2  0  0  0  0
112 79  2  0  0  0  0
 63113  1  0  0  0  0
114 69  1  0  0  0  0
 39115  1  0  0  0  0
 38116  1  0  0  0  0
 40117  1  0  0  0  0
118 65  1  0  0  0  0
119113  1  0  0  0  0
120 59  1  0  0  0  0
121 67  1  0  0  0  0
122 79  1  0  0  0  0
123102  1  0  0  0  0
124101  1  0  0  0  0
 29125  1  0  0  0  0
 30126  1  0  0  0  0
 36127  1  0  0  0  0
128136  1  0  0  0  0
129151  1  0  0  0  0
130152  1  0  0  0  0
131153  1  0  0  0  0
132150  1  0  0  0  0
133154  1  0  0  0  0
134149  1  0  0  0  0
107135  1  6  0  0  0
136 77  1  0  0  0  0
137125  1  0  0  0  0
138127  1  0  0  0  0
139126  1  0  0  0  0
140105  1  0  0  0  0
141106  1  0  0  0  0
 70142  1  0  0  0  0
 75143  1  0  0  0  0
 74144  1  0  0  0  0
 73145  1  0  0  0  0
 72146  1  0  0  0  0
 78147  1  0  0  0  0
 71148  1  1  0  0  0
149173  1  0  0  0  0
150176  1  0  0  0  0
151172  1  0  0  0  0
152174  1  0  0  0  0
153177  1  0  0  0  0
154175  1  0  0  0  0
117155  1  0  0  0  0
107156  1  0  0  0  0
157116  1  0  0  0  0
158116  1  0  0  0  0
159115  1  0  0  0  0
160115  1  0  0  0  0
117161  1  1  0  0  0
162123  2  0  0  0  0
163124  2  0  0  0  0
164123  1  0  0  0  0
165124  1  0  0  0  0
166142  1  0  0  0  0
167147  1  0  0  0  0
168145  1  0  0  0  0
169143  1  0  0  0  0
170144  1  0  0  0  0
171146  1  0  0  0  0
172166  1  0  0  0  0
173169  1  0  0  0  0
174168  1  0  0  0  0
175171  1  0  0  0  0
176170  1  0  0  0  0
177167  1  0  0  0  0
178141  1  0  0  0  0
179140  1  0  0  0  0
180140  1  0  0  0  0
181141  1  0  0  0  0
182155  1  0  0  0  0
183163  1  0  0  0  0
184164  2  0  0  0  0
185162  1  0  0  0  0
186165  2  0  0  0  0
187183  2  0  0  0  0
188184  1  0  0  0  0
 56 76  2  0  0  0  0
186187  1  0  0  0  0
185188  2  0  0  0  0
M  END
> <From>
www.bindingDB.org

> <BindingDB Reactant_set_id>
51016961

> <Ligand InChI>
InChI=1S/C121H201N33O34/c1-13-68(10)98(153-108(174)79(41-25-31-49-127)141-118(184)97(67(8)9)151-106(172)77(39-23-29-47-125)136-102(168)74(36-20-26-44-122)134-93(161)59-131-101(167)88(60-155)148-100(166)69(11)133-120(186)99(70(12)158)154-114(180)84(54-73-58-130-63-132-73)144-111(177)83(135-92(160)57-128)52-71-32-16-14-17-33-71)119(185)150-90(62-157)115(181)138-75(37-21-27-45-123)103(169)139-80(42-43-94(162)163)105(171)149-89(61-156)116(182)143-81(50-64(2)3)109(175)146-86(56-95(164)165)113(179)137-78(40-24-30-48-126)107(173)152-96(66(6)7)117(183)140-76(38-22-28-46-124)104(170)145-85(55-91(129)159)112(178)142-82(51-65(4)5)110(176)147-87(121(187)188)53-72-34-18-15-19-35-72/h14-19,32-35,58,63-70,74-90,96-99,155-158H,13,20-31,36-57,59-62,122-128H2,1-12H3,(H2,129,159)(H,130,132)(H,131,167)(H,133,186)(H,134,161)(H,135,160)(H,136,168)(H,137,179)(H,138,181)(H,139,169)(H,140,183)(H,141,184)(H,142,178)(H,143,182)(H,144,177)(H,145,170)(H,146,175)(H,147,176)(H,148,166)(H,149,171)(H,150,185)(H,151,172)(H,152,173)(H,153,174)(H,154,180)(H,162,163)(H,164,165)(H,187,188)/t68-,69-,70+,74-,75-,76-,77-,78-,79-,80-,81-,82-,83-,84-,85-,86-,87-,88-,89-,90-,96-,97-,98-,99-/m0/s1

> <Ligand InChI Key>
DAPJDQIJUHWVCP-LNCJGMMUSA-N

> <BindingDB MonomerID>
50416568

> <BindingDB Ligand Name>
CHEMBL1215817

> <Target Name>
DNA repair protein RAD51 homolog 1

> <Target Source Organism According to Curator or DataSource>
Homo sapiens

> <Ki (nM)>


> <IC50 (nM)>
 2000

> <Kd (nM)>


> <EC50 (nM)>


> <kon (M-1-s-1)>


> <koff (s-1)>


> <pH>


> <Temp C>


> <Curation/DataSource>
ChEMBL

> <Article DOI>
10.1021/jm1002974

> <BindingDB Entry DOI>
10.7270/Q2NG4RV5

> <PMID>
20684611

> <PubChem AID>


> <Patent Number>


> <Authors>
Nomme, J; Renodon-Corniere, A; Asanomi, Y; Sakaguchi, K; Stasiak, AZ; Stasiak, A; Norden, B; Tran, V; Takahashi, M

> <Date of publication>
8/5/2010

> <Date in BindingDB>
5/22/2013

> <Institution>
Centre National de la Recherche Scientifique & Universite de Nantes

> <Link to Ligand in BindingDB>
http://www.bindingdb.org/bind/chemsearch/marvin/MolStructure.jsp?monomerid=50416568

> <Link to Ligand-Target Pair in BindingDB>
http://www.bindingdb.org/jsp/dbsearch/PrimarySearch_ki.jsp?energyterm=kJ/mole&tag=pol&polymerid=4676&target=DNA+repair+protein+RAD51+homolog+1&column=ki&startPg=0&Increment=50&submit=Search

> <Link to Ligand-Target Pair in BindingDB>
http://www.bindingdb.org/jsp/dbsearch/PrimarySearch_ki.jsp?energyterm=kJ/mole&tag=r21&monomerid=50416568&enzyme=DNA+repair+protein+RAD51+homolog+1&column=ki&startPg=0&Increment=50&submit=Search

> <Ligand HET ID in PDB>


> <PDB ID(s) for Ligand-Target Complex>


> <PubChem CID of Ligand>
49864245

> <PubChem SID of Ligand>
163365592

> <ChEBI ID of Ligand>


> <ChEMBL ID of Ligand>
CHEMBL1215817

> <DrugBank ID of Ligand>


> <IUPHAR_GRAC ID of Ligand>


> <KEGG ID of Ligand>


> <ZINC ID of Ligand>


> <Number of Protein Chains in Target (bigger than 1 implies a multichain complex)>
1

> <BindingDB Target Chain Sequence>
MAMQMQLEANADTSVEEESFGPQPISRLEQCGINANDVKKLEEAGFHTVEAVAYAPKKELINIKGISEAKADKILAEAAKLVPMGFTTATEFHQRRSEIIQITTGSKELDKLLQGGIETGSITEMFGEFRTGKTQICHTLAVTCQLPIDRGGGEGKAMYIDTEGTFRPERLLAVAERYGLSGSDVLDNVAYARAFNTDHQTQLLYQASAMMVESRYALLIVDSATALYRTDYSGRGELSARQMHLARFLRMLLRLADEFGVAVVITNQVVAQVDGAAMFAADPKKPIGGNIIAHASTTRLYLRKGRGETRICKIYDSPCLPEAEAMFAINADGVGDAKD

> <PDB ID(s) of Target Chain>
1N0W,5JZC,5NP7,5NWL,8BQ2,8BR2,8BSC

> <UniProt (SwissProt) Recommended Name of Target Chain>
DNA repair protein RAD51 homolog 1

> <UniProt (SwissProt) Entry Name of Target Chain>
RAD51_HUMAN

> <UniProt (SwissProt) Primary ID of Target Chain>
Q06609

> <UniProt (SwissProt) Secondary ID(s) of Target Chain>
B0FXP0 B2R8T6 Q6FHX9 Q6ZNA8 Q9BV60

> <UniProt (SwissProt) Alternative ID(s) of Target Chain>


> <UniProt (TrEMBL) Submitted Name of Target Chain>


> <UniProt (TrEMBL) Entry Name of Target Chain>


> <UniProt (TrEMBL) Primary ID of Target Chain>


> <UniProt (TrEMBL) Secondary ID(s) of Target Chain>


> <UniProt (TrEMBL) Alternative ID(s) of Target Chain>


$$$$

  Mrv0541 11241415252D          

190193  0  0  0  0            999 V2000
    1.2004  -18.8263    0.0000 C   0  0  1  0  0  0  0  0  0  0  0  0
    1.9298  -18.4096    0.0000 C   0  0  0  0  0  0  0  0  0  0  0  0
    0.4959  -18.4179    0.0000 N   0  0  0  0  0  0  0  0  0  0  0  0
   14.8336  -18.3137    0.0000 C   0  0  0  0  0  0  0  0  0  0  0  0
   19.1348  -18.2846    0.0000 C   0  0  0  0  0  0  0  0  0  0  0  0
   36.3399  -18.1636    0.0000 C   0  0  0  0  0  0  0  0  0  0  0  0
   13.3956  -18.3262    0.0000 N   0  0  0  0  0  0  0  0  0  0  0  0
   34.9020  -18.1720    0.0000 N   0  0  0  0  0  0  0  0  0  0  0  0
   17.7010  -18.2929    0.0000 N   0  0  0  0  0  0  0  0  0  0  0  0
   -0.2334  -18.8388    0.0000 C   0  0  0  0  0  0  0  0  0  0  0  0
   27.7332  -18.2221    0.0000 C   0  0  0  0  0  0  0  0  0  0  0  0
   34.1768  -18.5930    0.0000 C   0  0  0  0  0  0  0  0  0  0  0  0
   16.9758  -18.7138    0.0000 C   0  0  0  0  0  0  0  0  0  0  0  0
   12.6704  -18.7430    0.0000 C   0  0  0  0  0  0  0  0  0  0  0  0
   40.6412  -18.1303    0.0000 C   0  0  0  0  0  0  0  0  0  0  0  0
   32.0386  -18.1887    0.0000 C   0  0  0  0  0  0  0  0  0  0  0  0
   29.8755  -18.6180    0.0000 C   0  0  0  0  0  0  0  0  0  0  0  0
   42.7793  -18.5305    0.0000 C   0  0  0  0  0  0  0  0  0  0  0  0
   -2.3757  -18.4429    0.0000 C   0  0  0  0  0  0  0  0  0  0  0  0
   25.5783  -18.6555    0.0000 C   0  0  0  0  0  0  0  0  0  0  0  0
    4.0720  -18.8055    0.0000 C   0  0  0  0  0  0  0  0  0  0  0  0
   38.4821  -18.5597    0.0000 C   0  0  0  0  0  0  0  0  0  0  0  0
   21.2730  -18.6805    0.0000 C   0  0  0  0  0  0  0  0  0  0  0  0
   23.4361  -18.2512    0.0000 C   0  0  0  0  0  0  0  0  0  0  0  0
   10.5323  -18.3471    0.0000 C   0  0  0  0  0  0  0  0  0  0  0  0
   26.3035  -18.2304    0.0000 N   0  0  0  0  0  0  0  0  0  0  0  0
    4.7931  -18.3887    0.0000 N   0  0  0  0  0  0  0  0  0  0  0  0
   27.0079  -18.6388    0.0000 C   0  0  1  0  0  0  0  0  0  0  0  0
   30.6048  -18.2054    0.0000 N   0  0  0  0  0  0  0  0  0  0  0  0
   28.4417  -18.6347    0.0000 N   0  0  0  0  0  0  0  0  0  0  0  0
   39.2073  -18.1428    0.0000 N   0  0  0  0  0  0  0  0  0  0  0  0
   -1.6630  -18.8472    0.0000 N   0  0  0  0  0  0  0  0  0  0  0  0
    2.6383  -18.8180    0.0000 N   0  0  0  0  0  0  0  0  0  0  0  0
    5.5016  -18.7972    0.0000 C   0  0  2  0  0  0  0  0  0  0  0  0
   41.3497  -18.5388    0.0000 N   0  0  0  0  0  0  0  0  0  0  0  0
   14.1042  -18.7347    0.0000 C   0  0  1  0  0  0  0  0  0  0  0  0
   35.6105  -18.5805    0.0000 C   0  0  1  0  0  0  0  0  0  0  0  0
   18.4096  -18.7013    0.0000 C   0  0  1  0  0  0  0  0  0  0  0  0
   43.5086  -18.1095    0.0000 N   0  0  0  0  0  0  0  0  0  0  0  0
   19.8391  -18.6930    0.0000 N   0  0  0  0  0  0  0  0  0  0  0  0
   15.5379  -18.7222    0.0000 N   0  0  0  0  0  0  0  0  0  0  0  0
   37.0484  -18.5722    0.0000 N   0  0  0  0  0  0  0  0  0  0  0  0
   31.3134  -18.6138    0.0000 C   0  0  1  0  0  0  0  0  0  0  0  0
   39.9159  -18.5513    0.0000 C   0  0  1  0  0  0  0  0  0  0  0  0
   24.1446  -18.6597    0.0000 N   0  0  0  0  0  0  0  0  0  0  0  0
   32.7471  -18.5972    0.0000 N   0  0  0  0  0  0  0  0  0  0  0  0
   11.2408  -18.7555    0.0000 N   0  0  0  0  0  0  0  0  0  0  0  0
   22.0023  -18.2637    0.0000 N   0  0  0  0  0  0  0  0  0  0  0  0
    6.2268  -18.3762    0.0000 C   0  0  0  0  0  0  0  0  0  0  0  0
   -0.9420  -18.4304    0.0000 C   0  0  1  0  0  0  0  0  0  0  0  0
   39.9159  -19.3682    0.0000 C   0  0  0  0  0  0  0  0  0  0  0  0
   31.3134  -19.4307    0.0000 C   0  0  0  0  0  0  0  0  0  0  0  0
   42.0707  -18.1220    0.0000 C   0  0  1  0  0  0  0  0  0  0  0  0
   29.1711  -18.2096    0.0000 C   0  0  1  0  0  0  0  0  0  0  0  0
    1.0211  -16.7257    0.0000 N   0  0  0  0  0  0  0  0  0  0  0  0
   -3.0926  -18.8555    0.0000 C   0  0  1  0  0  0  0  0  0  0  0  0
   44.2172  -18.5179    0.0000 C   0  0  2  0  0  0  0  0  0  0  0  0
   44.9424  -18.1011    0.0000 C   0  0  0  0  0  0  0  0  0  0  0  0
   -3.8094  -18.4429    0.0000 N   0  0  0  0  0  0  0  0  0  0  0  0
   -0.2334  -17.1843    0.0000 C   0  0  0  0  0  0  0  0  0  0  0  0
    9.0985  -18.3554    0.0000 N   0  0  0  0  0  0  0  0  0  0  0  0
   24.8698  -18.2429    0.0000 C   0  0  1  0  0  0  0  0  0  0  0  0
   -0.9420  -17.5927    0.0000 C   0  0  0  0  0  0  0  0  0  0  0  0
   40.6412  -19.7850    0.0000 C   0  0  0  0  0  0  0  0  0  0  0  0
   -0.2626  -16.3465    0.0000 N   0  0  0  0  0  0  0  0  0  0  0  0
   32.0386  -19.8433    0.0000 C   0  0  0  0  0  0  0  0  0  0  0  0
    8.3692  -18.7763    0.0000 C   0  0  0  0  0  0  0  0  0  0  0  0
    6.9353  -18.7847    0.0000 N   0  0  0  0  0  0  0  0  0  0  0  0
   16.2673  -18.3054    0.0000 C   0  0  1  0  0  0  0  0  0  0  0  0
   20.5644  -18.2721    0.0000 C   0  0  1  0  0  0  0  0  0  0  0  0
    3.3635  -18.3971    0.0000 C   0  0  1  0  0  0  0  0  0  0  0  0
   33.4724  -18.1846    0.0000 C   0  0  1  0  0  0  0  0  0  0  0  0
   11.9660  -18.3346    0.0000 C   0  0  1  0  0  0  0  0  0  0  0  0
   37.7736  -18.1511    0.0000 C   0  0  1  0  0  0  0  0  0  0  0  0
   22.7067  -18.6722    0.0000 C   0  0  1  0  0  0  0  0  0  0  0  0
    0.5127  -16.0672    0.0000 C   0  0  0  0  0  0  0  0  0  0  0  0
   -4.5305  -18.8555    0.0000 C   0  0  0  0  0  0  0  0  0  0  0  0
    9.8071  -18.7638    0.0000 C   0  0  1  0  0  0  0  0  0  0  0  0
   25.5783  -16.1548    0.0000 C   0  0  0  0  0  0  0  0  0  0  0  0
    0.5544  -17.4009    0.0000 C   0  0  0  0  0  0  0  0  0  0  0  0
    1.9298  -17.5719    0.0000 O   0  0  0  0  0  0  0  0  0  0  0  0
   19.1348  -17.4426    0.0000 O   0  0  0  0  0  0  0  0  0  0  0  0
   14.8336  -17.4759    0.0000 O   0  0  0  0  0  0  0  0  0  0  0  0
   36.3399  -17.3176    0.0000 O   0  0  0  0  0  0  0  0  0  0  0  0
   27.7332  -17.3884    0.0000 O   0  0  0  0  0  0  0  0  0  0  0  0
   -0.2334  -19.6558    0.0000 O   0  0  0  0  0  0  0  0  0  0  0  0
   12.6704  -19.5600    0.0000 O   0  0  0  0  0  0  0  0  0  0  0  0
   34.1768  -19.4099    0.0000 O   0  0  0  0  0  0  0  0  0  0  0  0
   16.9758  -19.5307    0.0000 O   0  0  0  0  0  0  0  0  0  0  0  0
   42.7793  -19.3474    0.0000 O   0  0  0  0  0  0  0  0  0  0  0  0
   32.0386  -17.3509    0.0000 O   0  0  0  0  0  0  0  0  0  0  0  0
   29.8755  -19.4349    0.0000 O   0  0  0  0  0  0  0  0  0  0  0  0
   40.6412  -17.2926    0.0000 O   0  0  0  0  0  0  0  0  0  0  0  0
   -2.3757  -17.6010    0.0000 O   0  0  0  0  0  0  0  0  0  0  0  0
   21.2730  -19.4974    0.0000 O   0  0  0  0  0  0  0  0  0  0  0  0
   25.5783  -19.4682    0.0000 O   0  0  0  0  0  0  0  0  0  0  0  0
   23.4361  -17.4134    0.0000 O   0  0  0  0  0  0  0  0  0  0  0  0
   38.4821  -19.3765    0.0000 O   0  0  0  0  0  0  0  0  0  0  0  0
   10.5323  -17.5094    0.0000 O   0  0  0  0  0  0  0  0  0  0  0  0
    4.0720  -19.6225    0.0000 O   0  0  0  0  0  0  0  0  0  0  0  0
   42.0707  -17.2843    0.0000 C   0  0  0  0  0  0  0  0  0  0  0  0
   -3.0926  -19.6766    0.0000 C   0  0  0  0  0  0  0  0  0  0  0  0
   44.2172  -19.3349    0.0000 C   0  0  0  0  0  0  0  0  0  0  0  0
    6.2268  -17.5385    0.0000 O   0  0  0  0  0  0  0  0  0  0  0  0
   44.9424  -17.2593    0.0000 O   0  0  0  0  0  0  0  0  0  0  0  0
   29.1711  -17.3718    0.0000 C   0  0  0  0  0  0  0  0  0  0  0  0
    1.2004  -19.6433    0.0000 C   0  0  2  0  0  0  0  0  0  0  0  0
   40.6412  -20.6061    0.0000 O   0  0  0  0  0  0  0  0  0  0  0  0
   32.0386  -20.6603    0.0000 O   0  0  0  0  0  0  0  0  0  0  0  0
    8.3692  -19.5933    0.0000 O   0  0  0  0  0  0  0  0  0  0  0  0
   -4.5305  -19.6850    0.0000 O   0  0  0  0  0  0  0  0  0  0  0  0
   26.2869  -15.7463    0.0000 O   0  0  0  0  0  0  0  0  0  0  0  0
   24.8698  -17.4009    0.0000 C   0  0  0  0  0  0  0  0  0  0  0  0
    7.6648  -18.3679    0.0000 C   0  0  0  0  0  0  0  0  0  0  0  0
   35.6105  -19.3974    0.0000 C   0  0  0  0  0  0  0  0  0  0  0  0
   14.1042  -19.5516    0.0000 C   0  0  0  0  0  0  0  0  0  0  0  0
   18.4096  -19.5182    0.0000 C   0  0  2  0  0  0  0  0  0  0  0  0
   41.3664  -19.3682    0.0000 N   0  0  0  0  0  0  0  0  0  0  0  0
   25.5783  -16.9925    0.0000 C   0  0  0  0  0  0  0  0  0  0  0  0
   45.6509  -18.5096    0.0000 O   0  0  0  0  0  0  0  0  0  0  0  0
   32.7638  -19.4307    0.0000 O   0  0  0  0  0  0  0  0  0  0  0  0
   24.8531  -15.7379    0.0000 O   0  0  0  0  0  0  0  0  0  0  0  0
   -2.3715  -20.0934    0.0000 C   0  0  0  0  0  0  0  0  0  0  0  0
   44.9424  -19.7558    0.0000 C   0  0  0  0  0  0  0  0  0  0  0  0
   42.7793  -16.8758    0.0000 C   0  0  0  0  0  0  0  0  0  0  0  0
   27.0079  -19.4557    0.0000 C   0  0  0  0  0  0  0  0  0  0  0  0
    5.5016  -19.6141    0.0000 C   0  0  0  0  0  0  0  0  0  0  0  0
   -5.9685  -18.8639    0.0000 N   0  0  0  0  0  0  0  0  0  0  0  0
   17.6844  -14.9711    0.0000 N   0  0  0  0  0  0  0  0  0  0  0  0
   13.3789  -15.0044    0.0000 N   0  0  0  0  0  0  0  0  0  0  0  0
   39.1907  -14.8211    0.0000 N   0  0  0  0  0  0  0  0  0  0  0  0
   34.8853  -14.8461    0.0000 N   0  0  0  0  0  0  0  0  0  0  0  0
   24.1613  -21.9607    0.0000 N   0  0  0  0  0  0  0  0  0  0  0  0
   11.2575  -22.0565    0.0000 N   0  0  0  0  0  0  0  0  0  0  0  0
    1.9298  -20.0642    0.0000 O   0  0  0  0  0  0  0  0  0  0  0  0
   -5.2432  -18.4471    0.0000 C   0  0  0  0  0  0  0  0  0  0  0  0
   27.7332  -19.8809    0.0000 O   0  0  0  0  0  0  0  0  0  0  0  0
    6.2268  -20.0351    0.0000 O   0  0  0  0  0  0  0  0  0  0  0  0
   29.8755  -16.9633    0.0000 C   0  0  0  0  0  0  0  0  0  0  0  0
   16.2673  -17.4676    0.0000 C   0  0  0  0  0  0  0  0  0  0  0  0
   22.7067  -19.4890    0.0000 C   0  0  0  0  0  0  0  0  0  0  0  0
   37.7736  -17.3134    0.0000 C   0  0  0  0  0  0  0  0  0  0  0  0
   11.9660  -17.4968    0.0000 C   0  0  0  0  0  0  0  0  0  0  0  0
   33.4724  -17.3468    0.0000 C   0  0  0  0  0  0  0  0  0  0  0  0
    9.8071  -19.5808    0.0000 C   0  0  0  0  0  0  0  0  0  0  0  0
    3.3635  -17.5594    0.0000 C   0  0  0  0  0  0  0  0  0  0  0  0
   20.5644  -17.4343    0.0000 C   0  0  0  0  0  0  0  0  0  0  0  0
   24.1613  -21.1437    0.0000 C   0  0  0  0  0  0  0  0  0  0  0  0
   39.1907  -15.6588    0.0000 C   0  0  0  0  0  0  0  0  0  0  0  0
   11.2575  -21.2396    0.0000 C   0  0  0  0  0  0  0  0  0  0  0  0
   17.6844  -15.8089    0.0000 C   0  0  0  0  0  0  0  0  0  0  0  0
   13.3789  -15.8422    0.0000 C   0  0  0  0  0  0  0  0  0  0  0  0
   34.8853  -15.6838    0.0000 C   0  0  0  0  0  0  0  0  0  0  0  0
   17.7010  -19.9267    0.0000 C   0  0  0  0  0  0  0  0  0  0  0  0
    0.4959  -20.0517    0.0000 C   0  0  0  0  0  0  0  0  0  0  0  0
   14.8336  -19.9684    0.0000 C   0  0  0  0  0  0  0  0  0  0  0  0
   13.3956  -19.9601    0.0000 C   0  0  0  0  0  0  0  0  0  0  0  0
   36.3399  -19.8183    0.0000 C   0  0  0  0  0  0  0  0  0  0  0  0
   34.9020  -19.8058    0.0000 C   0  0  0  0  0  0  0  0  0  0  0  0
   19.1348  -19.9392    0.0000 C   0  0  0  0  0  0  0  0  0  0  0  0
   43.4961  -17.2676    0.0000 C   0  0  0  0  0  0  0  0  0  0  0  0
   -1.6547  -19.6683    0.0000 C   0  0  0  0  0  0  0  0  0  0  0  0
   44.9549  -20.5686    0.0000 C   0  0  0  0  0  0  0  0  0  0  0  0
   42.7709  -16.0339    0.0000 C   0  0  0  0  0  0  0  0  0  0  0  0
   45.6592  -19.3265    0.0000 C   0  0  0  0  0  0  0  0  0  0  0  0
   -2.3590  -20.9104    0.0000 C   0  0  0  0  0  0  0  0  0  0  0  0
   10.5323  -20.0017    0.0000 C   0  0  0  0  0  0  0  0  0  0  0  0
   23.4361  -19.9059    0.0000 C   0  0  0  0  0  0  0  0  0  0  0  0
   38.4821  -16.9050    0.0000 C   0  0  0  0  0  0  0  0  0  0  0  0
   34.1768  -16.9300    0.0000 C   0  0  0  0  0  0  0  0  0  0  0  0
   12.6704  -17.0883    0.0000 C   0  0  0  0  0  0  0  0  0  0  0  0
   16.9758  -17.0592    0.0000 C   0  0  0  0  0  0  0  0  0  0  0  0
   16.9758  -16.2215    0.0000 C   0  0  0  0  0  0  0  0  0  0  0  0
   34.1768  -16.0922    0.0000 C   0  0  0  0  0  0  0  0  0  0  0  0
   38.4821  -16.0672    0.0000 C   0  0  0  0  0  0  0  0  0  0  0  0
   12.6704  -16.2506    0.0000 C   0  0  0  0  0  0  0  0  0  0  0  0
   10.5323  -20.8186    0.0000 C   0  0  0  0  0  0  0  0  0  0  0  0
   23.4361  -20.7311    0.0000 C   0  0  0  0  0  0  0  0  0  0  0  0
   29.8755  -16.1255    0.0000 C   0  0  0  0  0  0  0  0  0  0  0  0
   30.5882  -17.3718    0.0000 C   0  0  0  0  0  0  0  0  0  0  0  0
   17.7010  -20.7686    0.0000 C   0  0  0  0  0  0  0  0  0  0  0  0
   -1.6422  -21.3188    0.0000 C   0  0  0  0  0  0  0  0  0  0  0  0
   44.2047  -16.8508    0.0000 C   0  0  0  0  0  0  0  0  0  0  0  0
   43.4795  -15.6171    0.0000 C   0  0  0  0  0  0  0  0  0  0  0  0
   46.3803  -19.7350    0.0000 C   0  0  0  0  0  0  0  0  0  0  0  0
   45.6717  -20.9729    0.0000 C   0  0  0  0  0  0  0  0  0  0  0  0
   -0.9378  -20.0767    0.0000 C   0  0  0  0  0  0  0  0  0  0  0  0
   46.3845  -20.5603    0.0000 C   0  0  0  0  0  0  0  0  0  0  0  0
   -0.9336  -20.8979    0.0000 C   0  0  0  0  0  0  0  0  0  0  0  0
   44.2005  -16.0214    0.0000 C   0  0  0  0  0  0  0  0  0  0  0  0
  1  2  1  0  0  0  0
  1  3  1  6  0  0  0
 36  4  1  0  0  0  0
 38  5  1  0  0  0  0
 37  6  1  0  0  0  0
  7 14  1  0  0  0  0
  8 12  1  0  0  0  0
  9 13  1  0  0  0  0
 10  3  1  0  0  0  0
 28 11  1  0  0  0  0
 72 12  1  0  0  0  0
 69 13  1  0  0  0  0
 73 14  1  0  0  0  0
 44 15  1  0  0  0  0
 43 16  1  0  0  0  0
 54 17  1  0  0  0  0
 53 18  1  0  0  0  0
 19 32  1  0  0  0  0
 62 20  1  0  0  0  0
 71 21  1  0  0  0  0
 74 22  1  0  0  0  0
 70 23  1  0  0  0  0
 75 24  1  0  0  0  0
 78 25  1  0  0  0  0
 26 20  1  0  0  0  0
 27 21  1  0  0  0  0
 28 26  1  6  0  0  0
 29 17  1  0  0  0  0
 30 11  1  0  0  0  0
 31 22  1  0  0  0  0
 50 32  1  1  0  0  0
 33  2  1  0  0  0  0
 34 27  1  6  0  0  0
 35 15  1  0  0  0  0
 36  7  1  6  0  0  0
 37  8  1  6  0  0  0
 38  9  1  6  0  0  0
 39 18  1  0  0  0  0
 40  5  1  0  0  0  0
 41  4  1  0  0  0  0
 42  6  1  0  0  0  0
 43 29  1  6  0  0  0
 44 31  1  6  0  0  0
 45 24  1  0  0  0  0
 46 16  1  0  0  0  0
 47 25  1  0  0  0  0
 48 23  1  0  0  0  0
 34 49  1  0  0  0  0
 50 10  1  0  0  0  0
 44 51  1  0  0  0  0
 43 52  1  0  0  0  0
 53 35  1  1  0  0  0
 54 30  1  1  0  0  0
 55 80  1  0  0  0  0
 56 19  1  0  0  0  0
 57 39  1  6  0  0  0
 57 58  1  0  0  0  0
 56 59  1  6  0  0  0
 60 63  1  0  0  0  0
 61 67  1  0  0  0  0
 62 45  1  1  0  0  0
 50 63  1  0  0  0  0
 64 51  1  0  0  0  0
 65 60  1  0  0  0  0
 66 52  1  0  0  0  0
 67114  1  0  0  0  0
 68 49  1  0  0  0  0
 69 41  1  1  0  0  0
 70 40  1  0  0  0  0
 71 33  1  0  0  0  0
 72 46  1  1  0  0  0
 73 47  1  1  0  0  0
 74 42  1  1  0  0  0
 75 48  1  6  0  0  0
 76 65  1  0  0  0  0
 77 59  1  0  0  0  0
 78 61  1  6  0  0  0
 79119  1  0  0  0  0
 80 60  2  0  0  0  0
 81  2  2  0  0  0  0
 82  5  2  0  0  0  0
 83  4  2  0  0  0  0
 84  6  2  0  0  0  0
 85 11  2  0  0  0  0
 86 10  2  0  0  0  0
 87 14  2  0  0  0  0
 88 12  2  0  0  0  0
 89 13  2  0  0  0  0
 90 18  2  0  0  0  0
 91 16  2  0  0  0  0
 92 17  2  0  0  0  0
 93 15  2  0  0  0  0
 94 19  2  0  0  0  0
 95 23  2  0  0  0  0
 96 20  2  0  0  0  0
 97 24  2  0  0  0  0
 98 22  2  0  0  0  0
 99 25  2  0  0  0  0
100 21  2  0  0  0  0
 53101  1  0  0  0  0
 56102  1  0  0  0  0
 57103  1  0  0  0  0
104 49  2  0  0  0  0
105 58  2  0  0  0  0
 54106  1  0  0  0  0
  1107  1  0  0  0  0
108 64  2  0  0  0  0
109 66  2  0  0  0  0
110 67  2  0  0  0  0
111 77  2  0  0  0  0
112 79  2  0  0  0  0
 62113  1  0  0  0  0
114 68  1  0  0  0  0
 37115  1  0  0  0  0
 36116  1  0  0  0  0
 38117  1  0  0  0  0
118 64  1  0  0  0  0
119113  1  0  0  0  0
120 58  1  0  0  0  0
121 66  1  0  0  0  0
122 79  1  0  0  0  0
123102  1  0  0  0  0
124103  1  0  0  0  0
125101  1  0  0  0  0
 28126  1  0  0  0  0
 34127  1  0  0  0  0
128136  1  0  0  0  0
129151  1  0  0  0  0
130152  1  0  0  0  0
131149  1  0  0  0  0
132153  1  0  0  0  0
133148  1  0  0  0  0
134150  1  0  0  0  0
107135  1  6  0  0  0
136 77  1  0  0  0  0
137126  1  0  0  0  0
138127  1  0  0  0  0
139106  1  0  0  0  0
 69140  1  0  0  0  0
 75141  1  0  0  0  0
 74142  1  0  0  0  0
 73143  1  0  0  0  0
 72144  1  0  0  0  0
 78145  1  0  0  0  0
 71146  1  1  0  0  0
 70147  1  1  0  0  0
148178  1  0  0  0  0
149175  1  0  0  0  0
150177  1  0  0  0  0
151173  1  0  0  0  0
152176  1  0  0  0  0
153174  1  0  0  0  0
117154  1  0  0  0  0
107155  1  0  0  0  0
156116  1  0  0  0  0
157116  1  0  0  0  0
158115  1  0  0  0  0
159115  1  0  0  0  0
117160  1  1  0  0  0
161125  2  0  0  0  0
162123  2  0  0  0  0
163124  2  0  0  0  0
164125  1  0  0  0  0
165124  1  0  0  0  0
166123  1  0  0  0  0
167145  1  0  0  0  0
168141  1  0  0  0  0
169142  1  0  0  0  0
170144  1  0  0  0  0
171143  1  0  0  0  0
172140  1  0  0  0  0
173172  1  0  0  0  0
174170  1  0  0  0  0
175169  1  0  0  0  0
176171  1  0  0  0  0
177167  1  0  0  0  0
178168  1  0  0  0  0
179139  1  0  0  0  0
180139  1  0  0  0  0
181154  1  0  0  0  0
182166  2  0  0  0  0
183161  1  0  0  0  0
184164  2  0  0  0  0
185165  2  0  0  0  0
186163  1  0  0  0  0
187162  1  0  0  0  0
188185  1  0  0  0  0
189187  2  0  0  0  0
190183  2  0  0  0  0
 55 76  2  0  0  0  0
182189  1  0  0  0  0
184190  1  0  0  0  0
186188  2  0  0  0  0
M  END
> <From>
www.bindingDB.org

> <BindingDB Reactant_set_id>
51016962

> <Ligand InChI>
InChI=1S/C124H199N33O33/c1-12-70(8)101(156-112(177)83(45-27-33-53-130)145-121(186)100(69(6)7)154-110(175)81(43-25-31-51-128)141-106(171)78(40-22-28-48-125)138-96(163)63-134-105(170)92(64-158)152-104(169)72(10)137-123(188)102(73(11)160)157-118(183)88(58-77-62-133-66-135-77)148-114(179)86(139-95(162)61-131)55-74-34-16-13-17-35-74)122(187)136-71(9)103(168)140-79(41-23-29-49-126)107(172)143-84(46-47-97(164)165)109(174)153-93(65-159)119(184)146-85(54-67(2)3)113(178)150-90(60-98(166)167)117(182)142-82(44-26-32-52-129)111(176)155-99(68(4)5)120(185)144-80(42-24-30-50-127)108(173)149-89(59-94(132)161)116(181)147-87(56-75-36-18-14-19-37-75)115(180)151-91(124(189)190)57-76-38-20-15-21-39-76/h13-21,34-39,62,66-73,78-93,99-102,158-160H,12,22-33,40-61,63-65,125-131H2,1-11H3,(H2,132,161)(H,133,135)(H,134,170)(H,136,187)(H,137,188)(H,138,163)(H,139,162)(H,140,168)(H,141,171)(H,142,182)(H,143,172)(H,144,185)(H,145,186)(H,146,184)(H,147,181)(H,148,179)(H,149,173)(H,150,178)(H,151,180)(H,152,169)(H,153,174)(H,154,175)(H,155,176)(H,156,177)(H,157,183)(H,164,165)(H,166,167)(H,189,190)/t70-,71-,72-,73+,78-,79-,80-,81-,82-,83-,84-,85-,86-,87-,88-,89-,90-,91-,92-,93-,99-,100-,101-,102-/m0/s1

> <Ligand InChI Key>
DHYHTDQJAKBYOW-JNVWVPGISA-N

> <BindingDB MonomerID>
50416569

> <BindingDB Ligand Name>
CHEMBL1215818

> <Target Name>
DNA repair protein RAD51 homolog 1

> <Target Source Organism According to Curator or DataSource>
Homo sapiens

> <Ki (nM)>


> <IC50 (nM)>
 2600

> <Kd (nM)>


> <EC50 (nM)>


> <kon (M-1-s-1)>


> <koff (s-1)>


> <pH>


> <Temp C>


> <Curation/DataSource>
ChEMBL

> <Article DOI>
10.1021/jm1002974

> <BindingDB Entry DOI>
10.7270/Q2NG4RV5

> <PMID>
20684611

> <PubChem AID>


> <Patent Number>


> <Authors>
Nomme, J; Renodon-Corniere, A; Asanomi, Y; Sakaguchi, K; Stasiak, AZ; Stasiak, A; Norden, B; Tran, V; Takahashi, M

> <Date of publication>
8/5/2010

> <Date in BindingDB>
5/22/2013

> <Institution>
Centre National de la Recherche Scientifique & Universite de Nantes

> <Link to Ligand in BindingDB>
http://www.bindingdb.org/bind/chemsearch/marvin/MolStructure.jsp?monomerid=50416569

> <Link to Ligand-Target Pair in BindingDB>
http://www.bindingdb.org/jsp/dbsearch/PrimarySearch_ki.jsp?energyterm=kJ/mole&tag=pol&polymerid=4676&target=DNA+repair+protein+RAD51+homolog+1&column=ki&startPg=0&Increment=50&submit=Search

> <Link to Ligand-Target Pair in BindingDB>
http://www.bindingdb.org/jsp/dbsearch/PrimarySearch_ki.jsp?energyterm=kJ/mole&tag=r21&monomerid=50416569&enzyme=DNA+repair+protein+RAD51+homolog+1&column=ki&startPg=0&Increment=50&submit=Search

> <Ligand HET ID in PDB>


> <PDB ID(s) for Ligand-Target Complex>


> <PubChem CID of Ligand>
49864246

> <PubChem SID of Ligand>
163365593

> <ChEBI ID of Ligand>


> <ChEMBL ID of Ligand>
CHEMBL1215818

> <DrugBank ID of Ligand>


> <IUPHAR_GRAC ID of Ligand>


> <KEGG ID of Ligand>


> <ZINC ID of Ligand>


> <Number of Protein Chains in Target (bigger than 1 implies a multichain complex)>
1

> <BindingDB Target Chain Sequence>
MAMQMQLEANADTSVEEESFGPQPISRLEQCGINANDVKKLEEAGFHTVEAVAYAPKKELINIKGISEAKADKILAEAAKLVPMGFTTATEFHQRRSEIIQITTGSKELDKLLQGGIETGSITEMFGEFRTGKTQICHTLAVTCQLPIDRGGGEGKAMYIDTEGTFRPERLLAVAERYGLSGSDVLDNVAYARAFNTDHQTQLLYQASAMMVESRYALLIVDSATALYRTDYSGRGELSARQMHLARFLRMLLRLADEFGVAVVITNQVVAQVDGAAMFAADPKKPIGGNIIAHASTTRLYLRKGRGETRICKIYDSPCLPEAEAMFAINADGVGDAKD

> <PDB ID(s) of Target Chain>
1N0W,5JZC,5NP7,5NWL,8BQ2,8BR2,8BSC

> <UniProt (SwissProt) Recommended Name of Target Chain>
DNA repair protein RAD51 homolog 1

> <UniProt (SwissProt) Entry Name of Target Chain>
RAD51_HUMAN

> <UniProt (SwissProt) Primary ID of Target Chain>
Q06609

> <UniProt (SwissProt) Secondary ID(s) of Target Chain>
B0FXP0 B2R8T6 Q6FHX9 Q6ZNA8 Q9BV60

> <UniProt (SwissProt) Alternative ID(s) of Target Chain>


> <UniProt (TrEMBL) Submitted Name of Target Chain>


> <UniProt (TrEMBL) Entry Name of Target Chain>


> <UniProt (TrEMBL) Primary ID of Target Chain>


> <UniProt (TrEMBL) Secondary ID(s) of Target Chain>


> <UniProt (TrEMBL) Alternative ID(s) of Target Chain>


$$$$

  Mrv0541 11241415252D          

193196  0  0  0  0            999 V2000
    1.5035  -28.0612    0.0000 C   0  0  1  0  0  0  0  0  0  0  0  0
    2.2197  -27.6447    0.0000 C   0  0  0  0  0  0  0  0  0  0  0  0
    0.7913  -27.6447    0.0000 N   0  0  0  0  0  0  0  0  0  0  0  0
   19.3738  -27.6447    0.0000 C   0  0  0  0  0  0  0  0  0  0  0  0
   15.0884  -27.6447    0.0000 C   0  0  0  0  0  0  0  0  0  0  0  0
   36.5320  -27.6447    0.0000 C   0  0  0  0  0  0  0  0  0  0  0  0
   13.6600  -27.6447    0.0000 N   0  0  0  0  0  0  0  0  0  0  0  0
   35.1035  -27.6447    0.0000 N   0  0  0  0  0  0  0  0  0  0  0  0
   17.9454  -27.6447    0.0000 N   0  0  0  0  0  0  0  0  0  0  0  0
    0.0750  -28.0612    0.0000 C   0  0  0  0  0  0  0  0  0  0  0  0
   27.9529  -27.6447    0.0000 C   0  0  0  0  0  0  0  0  0  0  0  0
   21.5186  -28.0612    0.0000 C   0  0  0  0  0  0  0  0  0  0  0  0
   34.3873  -28.0612    0.0000 C   0  0  0  0  0  0  0  0  0  0  0  0
   12.9436  -28.0612    0.0000 C   0  0  0  0  0  0  0  0  0  0  0  0
   17.2332  -28.0612    0.0000 C   0  0  0  0  0  0  0  0  0  0  0  0
   40.8174  -27.6447    0.0000 C   0  0  0  0  0  0  0  0  0  0  0  0
   32.2424  -27.6447    0.0000 C   0  0  0  0  0  0  0  0  0  0  0  0
   30.0935  -28.0612    0.0000 C   0  0  0  0  0  0  0  0  0  0  0  0
   42.9622  -28.0612    0.0000 C   0  0  0  0  0  0  0  0  0  0  0  0
   -2.0698  -27.6447    0.0000 C   0  0  0  0  0  0  0  0  0  0  0  0
   20.0901  -28.0612    0.0000 N   0  0  0  0  0  0  0  0  0  0  0  0
   25.8081  -28.0612    0.0000 C   0  0  0  0  0  0  0  0  0  0  0  0
    4.3646  -28.0612    0.0000 C   0  0  0  0  0  0  0  0  0  0  0  0
   38.6768  -28.0612    0.0000 C   0  0  0  0  0  0  0  0  0  0  0  0
   23.6634  -27.6447    0.0000 C   0  0  0  0  0  0  0  0  0  0  0  0
   10.7989  -27.6447    0.0000 C   0  0  0  0  0  0  0  0  0  0  0  0
   26.5202  -27.6447    0.0000 N   0  0  0  0  0  0  0  0  0  0  0  0
    5.0767  -27.6447    0.0000 N   0  0  0  0  0  0  0  0  0  0  0  0
   20.8065  -27.6447    0.0000 C   0  0  1  0  0  0  0  0  0  0  0  0
   27.2366  -28.0612    0.0000 C   0  0  1  0  0  0  0  0  0  0  0  0
   30.8140  -27.6447    0.0000 N   0  0  0  0  0  0  0  0  0  0  0  0
   28.6651  -28.0612    0.0000 N   0  0  0  0  0  0  0  0  0  0  0  0
   39.3889  -27.6447    0.0000 N   0  0  0  0  0  0  0  0  0  0  0  0
    2.9319  -28.0612    0.0000 N   0  0  0  0  0  0  0  0  0  0  0  0
    5.7971  -28.0612    0.0000 C   0  0  2  0  0  0  0  0  0  0  0  0
   41.5338  -28.0612    0.0000 N   0  0  0  0  0  0  0  0  0  0  0  0
   -1.3535  -28.0612    0.0000 N   0  0  0  0  0  0  0  0  0  0  0  0
   14.3721  -28.0612    0.0000 C   0  0  1  0  0  0  0  0  0  0  0  0
   35.8157  -28.0612    0.0000 C   0  0  1  0  0  0  0  0  0  0  0  0
   18.6616  -28.0612    0.0000 C   0  0  1  0  0  0  0  0  0  0  0  0
   43.6785  -27.6447    0.0000 N   0  0  0  0  0  0  0  0  0  0  0  0
   15.8005  -28.0612    0.0000 N   0  0  0  0  0  0  0  0  0  0  0  0
   37.2442  -28.0612    0.0000 N   0  0  0  0  0  0  0  0  0  0  0  0
   31.5303  -28.0612    0.0000 C   0  0  1  0  0  0  0  0  0  0  0  0
   40.1053  -28.0612    0.0000 C   0  0  1  0  0  0  0  0  0  0  0  0
   22.2349  -27.6447    0.0000 N   0  0  0  0  0  0  0  0  0  0  0  0
   24.3797  -28.0612    0.0000 N   0  0  0  0  0  0  0  0  0  0  0  0
   32.9588  -28.0612    0.0000 N   0  0  0  0  0  0  0  0  0  0  0  0
   11.5151  -28.0612    0.0000 N   0  0  0  0  0  0  0  0  0  0  0  0
    6.5093  -27.6447    0.0000 C   0  0  0  0  0  0  0  0  0  0  0  0
   40.1053  -28.8816    0.0000 C   0  0  0  0  0  0  0  0  0  0  0  0
   31.5303  -28.8816    0.0000 C   0  0  0  0  0  0  0  0  0  0  0  0
   -0.6414  -27.6447    0.0000 C   0  0  1  0  0  0  0  0  0  0  0  0
   42.2500  -27.6447    0.0000 C   0  0  1  0  0  0  0  0  0  0  0  0
   29.3855  -27.6447    0.0000 C   0  0  1  0  0  0  0  0  0  0  0  0
   -2.7819  -28.0612    0.0000 C   0  0  1  0  0  0  0  0  0  0  0  0
   44.3907  -28.0612    0.0000 C   0  0  2  0  0  0  0  0  0  0  0  0
   45.1070  -27.6447    0.0000 C   0  0  0  0  0  0  0  0  0  0  0  0
   -3.4983  -27.6447    0.0000 N   0  0  0  0  0  0  0  0  0  0  0  0
    9.3704  -27.6447    0.0000 N   0  0  0  0  0  0  0  0  0  0  0  0
   25.0919  -27.6447    0.0000 C   0  0  1  0  0  0  0  0  0  0  0  0
   40.8174  -29.2981    0.0000 C   0  0  0  0  0  0  0  0  0  0  0  0
   32.2424  -29.2981    0.0000 C   0  0  0  0  0  0  0  0  0  0  0  0
    8.6540  -28.0612    0.0000 C   0  0  0  0  0  0  0  0  0  0  0  0
    7.2256  -28.0612    0.0000 N   0  0  0  0  0  0  0  0  0  0  0  0
   16.5169  -27.6447    0.0000 C   0  0  1  0  0  0  0  0  0  0  0  0
    3.6482  -27.6447    0.0000 C   0  0  1  0  0  0  0  0  0  0  0  0
   33.6709  -27.6447    0.0000 C   0  0  1  0  0  0  0  0  0  0  0  0
   12.2273  -27.6447    0.0000 C   0  0  1  0  0  0  0  0  0  0  0  0
   37.9605  -27.6447    0.0000 C   0  0  1  0  0  0  0  0  0  0  0  0
   22.9470  -28.0612    0.0000 C   0  0  1  0  0  0  0  0  0  0  0  0
   -4.2146  -28.0612    0.0000 C   0  0  0  0  0  0  0  0  0  0  0  0
   10.0867  -28.0612    0.0000 C   0  0  1  0  0  0  0  0  0  0  0  0
   25.8081  -25.5832    0.0000 C   0  0  0  0  0  0  0  0  0  0  0  0
    2.2197  -26.8201    0.0000 O   0  0  0  0  0  0  0  0  0  0  0  0
   19.3738  -26.8201    0.0000 O   0  0  0  0  0  0  0  0  0  0  0  0
   15.0884  -26.8201    0.0000 O   0  0  0  0  0  0  0  0  0  0  0  0
   36.5320  -26.8201    0.0000 O   0  0  0  0  0  0  0  0  0  0  0  0
   21.5186  -28.8816    0.0000 O   0  0  0  0  0  0  0  0  0  0  0  0
   27.9529  -26.8201    0.0000 O   0  0  0  0  0  0  0  0  0  0  0  0
    0.0750  -28.8816    0.0000 O   0  0  0  0  0  0  0  0  0  0  0  0
   17.2332  -28.8816    0.0000 O   0  0  0  0  0  0  0  0  0  0  0  0
   34.3873  -28.8816    0.0000 O   0  0  0  0  0  0  0  0  0  0  0  0
   12.9436  -28.8816    0.0000 O   0  0  0  0  0  0  0  0  0  0  0  0
   42.9622  -28.8816    0.0000 O   0  0  0  0  0  0  0  0  0  0  0  0
   32.2424  -26.8201    0.0000 O   0  0  0  0  0  0  0  0  0  0  0  0
   30.0935  -28.8816    0.0000 O   0  0  0  0  0  0  0  0  0  0  0  0
   40.8174  -26.8201    0.0000 O   0  0  0  0  0  0  0  0  0  0  0  0
   -2.0698  -26.8201    0.0000 O   0  0  0  0  0  0  0  0  0  0  0  0
   38.6768  -28.8816    0.0000 O   0  0  0  0  0  0  0  0  0  0  0  0
   23.6634  -26.8201    0.0000 O   0  0  0  0  0  0  0  0  0  0  0  0
   25.8081  -28.8816    0.0000 O   0  0  0  0  0  0  0  0  0  0  0  0
   10.7989  -26.8201    0.0000 O   0  0  0  0  0  0  0  0  0  0  0  0
    4.3646  -28.8816    0.0000 O   0  0  0  0  0  0  0  0  0  0  0  0
   -0.6414  -26.8201    0.0000 C   0  0  0  0  0  0  0  0  0  0  0  0
   42.2500  -26.8201    0.0000 C   0  0  0  0  0  0  0  0  0  0  0  0
   -2.7819  -28.8816    0.0000 C   0  0  0  0  0  0  0  0  0  0  0  0
   44.3907  -28.8816    0.0000 C   0  0  0  0  0  0  0  0  0  0  0  0
    6.5093  -26.8201    0.0000 O   0  0  0  0  0  0  0  0  0  0  0  0
   45.1070  -26.8201    0.0000 O   0  0  0  0  0  0  0  0  0  0  0  0
   29.3855  -26.8201    0.0000 C   0  0  0  0  0  0  0  0  0  0  0  0
    1.5035  -28.8816    0.0000 C   0  0  2  0  0  0  0  0  0  0  0  0
   40.8174  -30.1227    0.0000 O   0  0  0  0  0  0  0  0  0  0  0  0
   32.2424  -30.1227    0.0000 O   0  0  0  0  0  0  0  0  0  0  0  0
    8.6540  -28.8816    0.0000 O   0  0  0  0  0  0  0  0  0  0  0  0
   -4.2146  -28.8816    0.0000 O   0  0  0  0  0  0  0  0  0  0  0  0
   26.5202  -25.1709    0.0000 O   0  0  0  0  0  0  0  0  0  0  0  0
   25.0919  -26.8201    0.0000 C   0  0  0  0  0  0  0  0  0  0  0  0
    7.9419  -27.6447    0.0000 C   0  0  0  0  0  0  0  0  0  0  0  0
   35.8157  -28.8816    0.0000 C   0  0  0  0  0  0  0  0  0  0  0  0
   14.3721  -28.8816    0.0000 C   0  0  0  0  0  0  0  0  0  0  0  0
   18.6616  -28.8816    0.0000 C   0  0  2  0  0  0  0  0  0  0  0  0
   41.5338  -28.8816    0.0000 N   0  0  0  0  0  0  0  0  0  0  0  0
   25.8081  -26.4078    0.0000 C   0  0  0  0  0  0  0  0  0  0  0  0
    0.0750  -26.4078    0.0000 C   0  0  0  0  0  0  0  0  0  0  0  0
   45.8232  -28.0612    0.0000 O   0  0  0  0  0  0  0  0  0  0  0  0
    1.5035  -25.5791    0.0000 C   0  0  0  0  0  0  0  0  0  0  0  0
   32.9588  -28.8816    0.0000 O   0  0  0  0  0  0  0  0  0  0  0  0
   25.0919  -25.1709    0.0000 O   0  0  0  0  0  0  0  0  0  0  0  0
   -2.0698  -29.2981    0.0000 C   0  0  0  0  0  0  0  0  0  0  0  0
   45.1070  -29.2981    0.0000 C   0  0  0  0  0  0  0  0  0  0  0  0
   42.9622  -26.4078    0.0000 C   0  0  0  0  0  0  0  0  0  0  0  0
   27.2366  -28.8816    0.0000 C   0  0  0  0  0  0  0  0  0  0  0  0
   20.8065  -26.8201    0.0000 C   0  0  0  0  0  0  0  0  0  0  0  0
    5.7971  -28.8816    0.0000 C   0  0  0  0  0  0  0  0  0  0  0  0
   -5.6430  -28.0612    0.0000 N   0  0  0  0  0  0  0  0  0  0  0  0
    0.7913  -26.8201    0.0000 C   0  0  0  0  0  0  0  0  0  0  0  0
    0.0750  -25.5791    0.0000 C   0  0  0  0  0  0  0  0  0  0  0  0
   13.6600  -24.3463    0.0000 N   0  0  0  0  0  0  0  0  0  0  0  0
   11.5151  -31.3596    0.0000 N   0  0  0  0  0  0  0  0  0  0  0  0
   39.3889  -24.3463    0.0000 N   0  0  0  0  0  0  0  0  0  0  0  0
   35.1035  -24.3463    0.0000 N   0  0  0  0  0  0  0  0  0  0  0  0
   24.3797  -31.3596    0.0000 N   0  0  0  0  0  0  0  0  0  0  0  0
   17.9454  -24.3463    0.0000 N   0  0  0  0  0  0  0  0  0  0  0  0
    1.5035  -26.4078    0.0000 C   0  0  0  0  0  0  0  0  0  0  0  0
    0.7913  -25.1709    0.0000 C   0  0  0  0  0  0  0  0  0  0  0  0
    2.2197  -29.2981    0.0000 O   0  0  0  0  0  0  0  0  0  0  0  0
    2.2197  -25.1709    0.0000 O   0  0  0  0  0  0  0  0  0  0  0  0
   -4.9268  -27.6447    0.0000 C   0  0  0  0  0  0  0  0  0  0  0  0
    6.5093  -29.2981    0.0000 O   0  0  0  0  0  0  0  0  0  0  0  0
   27.9529  -29.2981    0.0000 O   0  0  0  0  0  0  0  0  0  0  0  0
   21.5186  -26.4078    0.0000 O   0  0  0  0  0  0  0  0  0  0  0  0
   30.0935  -26.4078    0.0000 C   0  0  0  0  0  0  0  0  0  0  0  0
   16.5169  -26.8201    0.0000 C   0  0  0  0  0  0  0  0  0  0  0  0
   22.9470  -28.8816    0.0000 C   0  0  0  0  0  0  0  0  0  0  0  0
   37.9605  -26.8201    0.0000 C   0  0  0  0  0  0  0  0  0  0  0  0
   12.2273  -26.8201    0.0000 C   0  0  0  0  0  0  0  0  0  0  0  0
   33.6709  -26.8201    0.0000 C   0  0  0  0  0  0  0  0  0  0  0  0
   10.0867  -28.8816    0.0000 C   0  0  0  0  0  0  0  0  0  0  0  0
    3.6482  -26.8201    0.0000 C   0  0  0  0  0  0  0  0  0  0  0  0
   24.3797  -30.5392    0.0000 C   0  0  0  0  0  0  0  0  0  0  0  0
   39.3889  -25.1709    0.0000 C   0  0  0  0  0  0  0  0  0  0  0  0
   17.9454  -25.1709    0.0000 C   0  0  0  0  0  0  0  0  0  0  0  0
   13.6600  -25.1709    0.0000 C   0  0  0  0  0  0  0  0  0  0  0  0
   11.5151  -30.5392    0.0000 C   0  0  0  0  0  0  0  0  0  0  0  0
   35.1035  -25.1709    0.0000 C   0  0  0  0  0  0  0  0  0  0  0  0
   17.9454  -29.2981    0.0000 C   0  0  0  0  0  0  0  0  0  0  0  0
    0.7913  -29.2981    0.0000 C   0  0  0  0  0  0  0  0  0  0  0  0
   13.6600  -29.2981    0.0000 C   0  0  0  0  0  0  0  0  0  0  0  0
   15.0884  -29.2981    0.0000 C   0  0  0  0  0  0  0  0  0  0  0  0
   36.5320  -29.2981    0.0000 C   0  0  0  0  0  0  0  0  0  0  0  0
   35.1035  -29.2981    0.0000 C   0  0  0  0  0  0  0  0  0  0  0  0
   19.3738  -29.2981    0.0000 C   0  0  0  0  0  0  0  0  0  0  0  0
   43.6785  -26.8201    0.0000 C   0  0  0  0  0  0  0  0  0  0  0  0
   -2.0698  -30.1185    0.0000 C   0  0  0  0  0  0  0  0  0  0  0  0
   45.1070  -30.1185    0.0000 C   0  0  0  0  0  0  0  0  0  0  0  0
   42.9622  -25.5791    0.0000 C   0  0  0  0  0  0  0  0  0  0  0  0
   45.8232  -28.8858    0.0000 C   0  0  0  0  0  0  0  0  0  0  0  0
   -1.3535  -28.8858    0.0000 C   0  0  0  0  0  0  0  0  0  0  0  0
   12.9436  -26.4078    0.0000 C   0  0  0  0  0  0  0  0  0  0  0  0
   23.6634  -29.2981    0.0000 C   0  0  0  0  0  0  0  0  0  0  0  0
   38.6768  -26.4078    0.0000 C   0  0  0  0  0  0  0  0  0  0  0  0
   34.3873  -26.4078    0.0000 C   0  0  0  0  0  0  0  0  0  0  0  0
   17.2332  -26.4078    0.0000 C   0  0  0  0  0  0  0  0  0  0  0  0
   10.7989  -29.2981    0.0000 C   0  0  0  0  0  0  0  0  0  0  0  0
   12.9436  -25.5832    0.0000 C   0  0  0  0  0  0  0  0  0  0  0  0
   34.3873  -25.5832    0.0000 C   0  0  0  0  0  0  0  0  0  0  0  0
   38.6768  -25.5832    0.0000 C   0  0  0  0  0  0  0  0  0  0  0  0
   10.7989  -30.1227    0.0000 C   0  0  0  0  0  0  0  0  0  0  0  0
   17.2332  -25.5832    0.0000 C   0  0  0  0  0  0  0  0  0  0  0  0
   23.6634  -30.1227    0.0000 C   0  0  0  0  0  0  0  0  0  0  0  0
   30.0935  -25.5832    0.0000 C   0  0  0  0  0  0  0  0  0  0  0  0
   30.8140  -26.8201    0.0000 C   0  0  0  0  0  0  0  0  0  0  0  0
   17.9454  -30.1227    0.0000 C   0  0  0  0  0  0  0  0  0  0  0  0
   -0.6372  -29.2981    0.0000 C   0  0  0  0  0  0  0  0  0  0  0  0
   44.3948  -26.4078    0.0000 C   0  0  0  0  0  0  0  0  0  0  0  0
   43.6785  -25.1709    0.0000 C   0  0  0  0  0  0  0  0  0  0  0  0
   46.5354  -29.2981    0.0000 C   0  0  0  0  0  0  0  0  0  0  0  0
   45.8232  -30.5350    0.0000 C   0  0  0  0  0  0  0  0  0  0  0  0
   -1.3535  -30.5350    0.0000 C   0  0  0  0  0  0  0  0  0  0  0  0
   46.5354  -30.1185    0.0000 C   0  0  0  0  0  0  0  0  0  0  0  0
   -0.6372  -30.1185    0.0000 C   0  0  0  0  0  0  0  0  0  0  0  0
   44.3948  -25.5791    0.0000 C   0  0  0  0  0  0  0  0  0  0  0  0
  1  2  1  0  0  0  0
  1  3  1  6  0  0  0
 40  4  1  0  0  0  0
 38  5  1  0  0  0  0
 39  6  1  0  0  0  0
  7 14  1  0  0  0  0
  8 13  1  0  0  0  0
  9 15  1  0  0  0  0
 10  3  1  0  0  0  0
 30 11  1  0  0  0  0
 29 12  1  0  0  0  0
 68 13  1  0  0  0  0
 69 14  1  0  0  0  0
 66 15  1  0  0  0  0
 45 16  1  0  0  0  0
 44 17  1  0  0  0  0
 55 18  1  0  0  0  0
 54 19  1  0  0  0  0
 20 37  1  0  0  0  0
 21  4  1  0  0  0  0
 61 22  1  0  0  0  0
 67 23  1  0  0  0  0
 70 24  1  0  0  0  0
 71 25  1  0  0  0  0
 73 26  1  0  0  0  0
 27 22  1  0  0  0  0
 28 23  1  0  0  0  0
 29 21  1  1  0  0  0
 30 27  1  6  0  0  0
 31 18  1  0  0  0  0
 32 11  1  0  0  0  0
 33 24  1  0  0  0  0
 34  2  1  0  0  0  0
 35 28  1  6  0  0  0
 36 16  1  0  0  0  0
 53 37  1  1  0  0  0
 38  7  1  6  0  0  0
 39  8  1  6  0  0  0
 40  9  1  6  0  0  0
 41 19  1  0  0  0  0
 42  5  1  0  0  0  0
 43  6  1  0  0  0  0
 44 31  1  6  0  0  0
 45 33  1  6  0  0  0
 46 12  1  0  0  0  0
 47 25  1  0  0  0  0
 48 17  1  0  0  0  0
 49 26  1  0  0  0  0
 35 50  1  0  0  0  0
 45 51  1  0  0  0  0
 44 52  1  0  0  0  0
 53 10  1  0  0  0  0
 54 36  1  1  0  0  0
 55 32  1  1  0  0  0
 56 20  1  0  0  0  0
 57 41  1  6  0  0  0
 57 58  1  0  0  0  0
 56 59  1  6  0  0  0
 60 64  1  0  0  0  0
 61 47  1  1  0  0  0
 62 51  1  0  0  0  0
 63 52  1  0  0  0  0
 64109  1  0  0  0  0
 65 50  1  0  0  0  0
 66 42  1  1  0  0  0
 67 34  1  0  0  0  0
 68 48  1  1  0  0  0
 69 49  1  1  0  0  0
 70 43  1  1  0  0  0
 71 46  1  6  0  0  0
 72 59  1  0  0  0  0
 73 60  1  6  0  0  0
 74114  1  0  0  0  0
 75  2  2  0  0  0  0
 76  4  2  0  0  0  0
 77  5  2  0  0  0  0
 78  6  2  0  0  0  0
 79 12  2  0  0  0  0
 80 11  2  0  0  0  0
 81 10  2  0  0  0  0
 82 15  2  0  0  0  0
 83 13  2  0  0  0  0
 84 14  2  0  0  0  0
 85 19  2  0  0  0  0
 86 17  2  0  0  0  0
 87 18  2  0  0  0  0
 88 16  2  0  0  0  0
 89 20  2  0  0  0  0
 90 24  2  0  0  0  0
 91 25  2  0  0  0  0
 92 22  2  0  0  0  0
 93 26  2  0  0  0  0
 94 23  2  0  0  0  0
 53 95  1  0  0  0  0
 54 96  1  0  0  0  0
 56 97  1  0  0  0  0
 57 98  1  0  0  0  0
 99 50  2  0  0  0  0
100 58  2  0  0  0  0
 55101  1  0  0  0  0
  1102  1  0  0  0  0
103 62  2  0  0  0  0
104 63  2  0  0  0  0
105 64  2  0  0  0  0
106 72  2  0  0  0  0
107 74  2  0  0  0  0
 61108  1  0  0  0  0
109 65  1  0  0  0  0
 39110  1  0  0  0  0
 38111  1  0  0  0  0
 40112  1  0  0  0  0
113 62  1  0  0  0  0
114108  1  0  0  0  0
115 95  1  0  0  0  0
116 58  1  0  0  0  0
117135  2  0  0  0  0
118 63  1  0  0  0  0
119 74  1  0  0  0  0
120 97  1  0  0  0  0
121 98  1  0  0  0  0
122 96  1  0  0  0  0
 30123  1  0  0  0  0
 29124  1  0  0  0  0
 35125  1  0  0  0  0
126139  1  0  0  0  0
127115  2  0  0  0  0
128115  1  0  0  0  0
129154  1  0  0  0  0
130155  1  0  0  0  0
131152  1  0  0  0  0
132156  1  0  0  0  0
133151  1  0  0  0  0
134153  1  0  0  0  0
135127  1  0  0  0  0
136128  2  0  0  0  0
102137  1  6  0  0  0
138117  1  0  0  0  0
139 72  1  0  0  0  0
140125  1  0  0  0  0
141123  1  0  0  0  0
142124  1  0  0  0  0
143101  1  0  0  0  0
 66144  1  0  0  0  0
 71145  1  0  0  0  0
 70146  1  0  0  0  0
 69147  1  0  0  0  0
 68148  1  0  0  0  0
 73149  1  0  0  0  0
 67150  1  1  0  0  0
151181  1  0  0  0  0
152178  1  0  0  0  0
153180  1  0  0  0  0
154176  1  0  0  0  0
155179  1  0  0  0  0
156177  1  0  0  0  0
112157  1  0  0  0  0
102158  1  0  0  0  0
159111  1  0  0  0  0
160111  1  0  0  0  0
161110  1  0  0  0  0
162110  1  0  0  0  0
112163  1  1  0  0  0
164122  2  0  0  0  0
165120  2  0  0  0  0
166121  2  0  0  0  0
167122  1  0  0  0  0
168121  1  0  0  0  0
169120  1  0  0  0  0
170147  1  0  0  0  0
171145  1  0  0  0  0
172146  1  0  0  0  0
173148  1  0  0  0  0
174144  1  0  0  0  0
175149  1  0  0  0  0
176170  1  0  0  0  0
177173  1  0  0  0  0
178172  1  0  0  0  0
179175  1  0  0  0  0
180174  1  0  0  0  0
181171  1  0  0  0  0
182143  1  0  0  0  0
183143  1  0  0  0  0
184157  1  0  0  0  0
185169  2  0  0  0  0
186164  1  0  0  0  0
187167  2  0  0  0  0
188168  2  0  0  0  0
189166  1  0  0  0  0
190165  1  0  0  0  0
191188  1  0  0  0  0
192185  1  0  0  0  0
193186  2  0  0  0  0
136117  1  0  0  0  0
190192  2  0  0  0  0
187193  1  0  0  0  0
189191  2  0  0  0  0
M  END
> <From>
www.bindingDB.org

> <BindingDB Reactant_set_id>
51016963

> <Ligand InChI>
InChI=1S/C127H201N31O35/c1-11-72(8)104(157-114(179)85(44-26-32-56-133)145-124(189)103(71(6)7)155-112(177)83(42-24-30-54-131)140-108(173)80(39-21-27-51-128)138-99(166)65-136-107(172)94(66-159)152-106(171)73(9)137-126(191)105(74(10)162)158-120(185)90(60-78-45-47-79(163)48-46-78)148-116(181)88(139-98(165)64-134)58-75-33-15-12-16-34-75)125(190)154-96(68-161)121(186)142-81(40-22-28-52-129)109(174)143-86(49-50-100(167)168)111(176)153-95(67-160)122(187)146-87(57-69(2)3)115(180)150-92(63-101(169)170)119(184)141-84(43-25-31-55-132)113(178)156-102(70(4)5)123(188)144-82(41-23-29-53-130)110(175)149-91(62-97(135)164)118(183)147-89(59-76-35-17-13-18-36-76)117(182)151-93(127(192)193)61-77-37-19-14-20-38-77/h12-20,33-38,45-48,69-74,80-96,102-105,159-163H,11,21-32,39-44,49-68,128-134H2,1-10H3,(H2,135,164)(H,136,172)(H,137,191)(H,138,166)(H,139,165)(H,140,173)(H,141,184)(H,142,186)(H,143,174)(H,144,188)(H,145,189)(H,146,187)(H,147,183)(H,148,181)(H,149,175)(H,150,180)(H,151,182)(H,152,171)(H,153,176)(H,154,190)(H,155,177)(H,156,178)(H,157,179)(H,158,185)(H,167,168)(H,169,170)(H,192,193)/t72-,73-,74+,80-,81-,82-,83-,84-,85-,86-,87-,88-,89-,90-,91-,92-,93-,94-,95-,96-,102-,103-,104-,105-/m0/s1

> <Ligand InChI Key>
HHEJEJNXLAWPSZ-XNZAUPJISA-N

> <BindingDB MonomerID>
50416570

> <BindingDB Ligand Name>
CHEMBL1215819

> <Target Name>
DNA repair protein RAD51 homolog 1

> <Target Source Organism According to Curator or DataSource>
Homo sapiens

> <Ki (nM)>


> <IC50 (nM)>
 1050

> <Kd (nM)>


> <EC50 (nM)>


> <kon (M-1-s-1)>


> <koff (s-1)>


> <pH>


> <Temp C>


> <Curation/DataSource>
ChEMBL

> <Article DOI>
10.1021/jm1002974

> <BindingDB Entry DOI>
10.7270/Q2NG4RV5

> <PMID>
20684611

> <PubChem AID>


> <Patent Number>


> <Authors>
Nomme, J; Renodon-Corniere, A; Asanomi, Y; Sakaguchi, K; Stasiak, AZ; Stasiak, A; Norden, B; Tran, V; Takahashi, M

> <Date of publication>
8/5/2010

> <Date in BindingDB>
5/22/2013

> <Institution>
Centre National de la Recherche Scientifique & Universite de Nantes

> <Link to Ligand in BindingDB>
http://www.bindingdb.org/bind/chemsearch/marvin/MolStructure.jsp?monomerid=50416570

> <Link to Ligand-Target Pair in BindingDB>
http://www.bindingdb.org/jsp/dbsearch/PrimarySearch_ki.jsp?energyterm=kJ/mole&tag=pol&polymerid=4676&target=DNA+repair+protein+RAD51+homolog+1&column=ki&startPg=0&Increment=50&submit=Search

> <Link to Ligand-Target Pair in BindingDB>
http://www.bindingdb.org/jsp/dbsearch/PrimarySearch_ki.jsp?energyterm=kJ/mole&tag=r21&monomerid=50416570&enzyme=DNA+repair+protein+RAD51+homolog+1&column=ki&startPg=0&Increment=50&submit=Search

> <Ligand HET ID in PDB>


> <PDB ID(s) for Ligand-Target Complex>


> <PubChem CID of Ligand>
46899807

> <PubChem SID of Ligand>
163365594

> <ChEBI ID of Ligand>


> <ChEMBL ID of Ligand>
CHEMBL1215819

> <DrugBank ID of Ligand>


> <IUPHAR_GRAC ID of Ligand>


> <KEGG ID of Ligand>


> <ZINC ID of Ligand>


> <Number of Protein Chains in Target (bigger than 1 implies a multichain complex)>
1

> <BindingDB Target Chain Sequence>
MAMQMQLEANADTSVEEESFGPQPISRLEQCGINANDVKKLEEAGFHTVEAVAYAPKKELINIKGISEAKADKILAEAAKLVPMGFTTATEFHQRRSEIIQITTGSKELDKLLQGGIETGSITEMFGEFRTGKTQICHTLAVTCQLPIDRGGGEGKAMYIDTEGTFRPERLLAVAERYGLSGSDVLDNVAYARAFNTDHQTQLLYQASAMMVESRYALLIVDSATALYRTDYSGRGELSARQMHLARFLRMLLRLADEFGVAVVITNQVVAQVDGAAMFAADPKKPIGGNIIAHASTTRLYLRKGRGETRICKIYDSPCLPEAEAMFAINADGVGDAKD

> <PDB ID(s) of Target Chain>
1N0W,5JZC,5NP7,5NWL,8BQ2,8BR2,8BSC

> <UniProt (SwissProt) Recommended Name of Target Chain>
DNA repair protein RAD51 homolog 1

> <UniProt (SwissProt) Entry Name of Target Chain>
RAD51_HUMAN

> <UniProt (SwissProt) Primary ID of Target Chain>
Q06609

> <UniProt (SwissProt) Secondary ID(s) of Target Chain>
B0FXP0 B2R8T6 Q6FHX9 Q6ZNA8 Q9BV60

> <UniProt (SwissProt) Alternative ID(s) of Target Chain>


> <UniProt (TrEMBL) Submitted Name of Target Chain>


> <UniProt (TrEMBL) Entry Name of Target Chain>


> <UniProt (TrEMBL) Primary ID of Target Chain>


> <UniProt (TrEMBL) Secondary ID(s) of Target Chain>


> <UniProt (TrEMBL) Alternative ID(s) of Target Chain>


$$$$
5738263
  Mrv0541 11251415582D          

 26 29  0  0  0  0            999 V2000
    5.2223   -1.6500    0.0000 O   0  0  0  0  0  0  0  0  0  0  0  0
    4.5079   -0.4125    0.0000 N   0  0  0  0  0  0  0  0  0  0  0  0
    5.2223    0.8250    0.0000 N   0  0  0  0  0  0  0  0  0  0  0  0
    1.6500    2.0625    0.0000 N   0  0  0  0  0  0  0  0  0  0  0  0
    3.7934   -0.8250    0.0000 C   0  0  0  0  0  0  0  0  0  0  0  0
    4.5079    0.4125    0.0000 C   0  0  0  0  0  0  0  0  0  0  0  0
    5.9369   -0.4125    0.0000 C   0  0  0  0  0  0  0  0  0  0  0  0
    5.2223   -0.8250    0.0000 C   0  0  0  0  0  0  0  0  0  0  0  0
    3.7934   -1.6500    0.0000 C   0  0  0  0  0  0  0  0  0  0  0  0
    5.9369    0.4125    0.0000 C   0  0  0  0  0  0  0  0  0  0  0  0
    6.6743   -0.8536    0.0000 C   0  0  0  0  0  0  0  0  0  0  0  0
    3.7934    0.8250    0.0000 C   0  0  0  0  0  0  0  0  0  0  0  0
    6.6743    0.8536    0.0000 C   0  0  0  0  0  0  0  0  0  0  0  0
    3.0789   -2.0625    0.0000 C   0  0  0  0  0  0  0  0  0  0  0  0
    4.5079   -2.0625    0.0000 C   0  0  0  0  0  0  0  0  0  0  0  0
    7.4219   -0.4297    0.0000 C   0  0  0  0  0  0  0  0  0  0  0  0
    7.4219    0.4297    0.0000 C   0  0  0  0  0  0  0  0  0  0  0  0
    3.7934    1.6500    0.0000 C   0  0  0  0  0  0  0  0  0  0  0  0
    3.0789   -2.8875    0.0000 C   0  0  0  0  0  0  0  0  0  0  0  0
    4.5079   -2.8875    0.0000 C   0  0  0  0  0  0  0  0  0  0  0  0
    3.7934   -3.3000    0.0000 C   0  0  0  0  0  0  0  0  0  0  0  0
    3.0789    2.0625    0.0000 C   0  0  0  0  0  0  0  0  0  0  0  0
    3.0789    2.8875    0.0000 C   0  0  0  0  0  0  0  0  0  0  0  0
    2.3644    1.6500    0.0000 C   0  0  0  0  0  0  0  0  0  0  0  0
    2.3644    3.3000    0.0000 C   0  0  0  0  0  0  0  0  0  0  0  0
    1.6500    2.8875    0.0000 C   0  0  0  0  0  0  0  0  0  0  0  0
  1  8  2  0  0  0  0
  2  5  1  0  0  0  0
  2  6  1  0  0  0  0
  2  8  1  0  0  0  0
  3  6  2  0  0  0  0
  3 10  1  0  0  0  0
  4 24  2  0  0  0  0
  4 26  1  0  0  0  0
  5  9  1  0  0  0  0
  6 12  1  0  0  0  0
  7  8  1  0  0  0  0
  7 10  1  0  0  0  0
  7 11  2  0  0  0  0
  9 14  2  0  0  0  0
  9 15  1  0  0  0  0
 10 13  2  0  0  0  0
 11 16  1  0  0  0  0
 12 18  2  0  0  0  0
 13 17  1  0  0  0  0
 14 19  1  0  0  0  0
 15 20  2  0  0  0  0
 16 17  2  0  0  0  0
 18 22  1  0  0  0  0
 19 21  2  0  0  0  0
 20 21  1  0  0  0  0
 22 23  2  0  0  0  0
 22 24  1  0  0  0  0
 23 25  1  0  0  0  0
 25 26  2  0  0  0  0
M  END
> <From>
www.bindingDB.org

> <BindingDB Reactant_set_id>
50937796

> <Ligand InChI>
InChI=1S/C22H17N3O/c26-22-19-10-4-5-11-20(19)24-21(13-12-17-9-6-14-23-15-17)25(22)16-18-7-2-1-3-8-18/h1-15H,16H2/b13-12+

> <Ligand InChI Key>
GEKDQXSPTHHANP-OUKQBFOZSA-N

> <BindingDB MonomerID>
48804

> <BindingDB Ligand Name>
3-(phenylmethyl)-2-[(E)-2-(3-pyridinyl)ethenyl]-4-quinazolinone::3-(phenylmethyl)-2-[(E)-2-pyridin-3-ylethenyl]quinazolin-4-one::3-benzyl-2-[(E)-2-(3-pyridyl)vinyl]quinazolin-4-one::3-benzyl-2-[(E)-2-pyridin-3-ylethenyl]quinazolin-4-one::MLS000709026::SMR000289793::cid_5738263

> <Target Name>
DNA repair protein RAD51 homolog 1

> <Target Source Organism According to Curator or DataSource>
Homo sapiens

> <Ki (nM)>


> <IC50 (nM)>
 35000

> <Kd (nM)>


> <EC50 (nM)>


> <kon (M-1-s-1)>


> <koff (s-1)>


> <pH>


> <Temp C>


> <Curation/DataSource>
ChEMBL

> <Article DOI>
10.1021/jm201173g

> <BindingDB Entry DOI>
10.7270/Q2028SKG

> <PMID>
22380680

> <PubChem AID>


> <Patent Number>


> <Authors>
Huang, F; Mazina, OM; Zentner, IJ; Cocklin, S; Mazin, AV

> <Date of publication>
4/12/2012

> <Date in BindingDB>
2/7/2013

> <Institution>
Drexel University College of Medicine

> <Link to Ligand in BindingDB>
http://www.bindingdb.org/bind/chemsearch/marvin/MolStructure.jsp?monomerid=48804

> <Link to Ligand-Target Pair in BindingDB>
http://www.bindingdb.org/jsp/dbsearch/PrimarySearch_ki.jsp?energyterm=kJ/mole&tag=pol&polymerid=4676&target=DNA+repair+protein+RAD51+homolog+1&column=ki&startPg=0&Increment=50&submit=Search

> <Link to Ligand-Target Pair in BindingDB>
http://www.bindingdb.org/jsp/dbsearch/PrimarySearch_ki.jsp?energyterm=kJ/mole&tag=r21&monomerid=48804&enzyme=DNA+repair+protein+RAD51+homolog+1&column=ki&startPg=0&Increment=50&submit=Search

> <Ligand HET ID in PDB>


> <PDB ID(s) for Ligand-Target Complex>


> <PubChem CID of Ligand>
5738263

> <PubChem SID of Ligand>
252629091

> <ChEBI ID of Ligand>


> <ChEMBL ID of Ligand>


> <DrugBank ID of Ligand>


> <IUPHAR_GRAC ID of Ligand>


> <KEGG ID of Ligand>


> <ZINC ID of Ligand>
ZINC04537641

> <Number of Protein Chains in Target (bigger than 1 implies a multichain complex)>
1

> <BindingDB Target Chain Sequence>
MAMQMQLEANADTSVEEESFGPQPISRLEQCGINANDVKKLEEAGFHTVEAVAYAPKKELINIKGISEAKADKILAEAAKLVPMGFTTATEFHQRRSEIIQITTGSKELDKLLQGGIETGSITEMFGEFRTGKTQICHTLAVTCQLPIDRGGGEGKAMYIDTEGTFRPERLLAVAERYGLSGSDVLDNVAYARAFNTDHQTQLLYQASAMMVESRYALLIVDSATALYRTDYSGRGELSARQMHLARFLRMLLRLADEFGVAVVITNQVVAQVDGAAMFAADPKKPIGGNIIAHASTTRLYLRKGRGETRICKIYDSPCLPEAEAMFAINADGVGDAKD

> <PDB ID(s) of Target Chain>
1N0W,5JZC,5NP7,5NWL,8BQ2,8BR2,8BSC

> <UniProt (SwissProt) Recommended Name of Target Chain>
DNA repair protein RAD51 homolog 1

> <UniProt (SwissProt) Entry Name of Target Chain>
RAD51_HUMAN

> <UniProt (SwissProt) Primary ID of Target Chain>
Q06609

> <UniProt (SwissProt) Secondary ID(s) of Target Chain>
B0FXP0 B2R8T6 Q6FHX9 Q6ZNA8 Q9BV60

> <UniProt (SwissProt) Alternative ID(s) of Target Chain>


> <UniProt (TrEMBL) Submitted Name of Target Chain>


> <UniProt (TrEMBL) Entry Name of Target Chain>


> <UniProt (TrEMBL) Primary ID of Target Chain>


> <UniProt (TrEMBL) Secondary ID(s) of Target Chain>


> <UniProt (TrEMBL) Alternative ID(s) of Target Chain>


$$$$
5738263
  Mrv0541 11251415582D          

 26 29  0  0  0  0            999 V2000
    5.2223   -1.6500    0.0000 O   0  0  0  0  0  0  0  0  0  0  0  0
    4.5079   -0.4125    0.0000 N   0  0  0  0  0  0  0  0  0  0  0  0
    5.2223    0.8250    0.0000 N   0  0  0  0  0  0  0  0  0  0  0  0
    1.6500    2.0625    0.0000 N   0  0  0  0  0  0  0  0  0  0  0  0
    3.7934   -0.8250    0.0000 C   0  0  0  0  0  0  0  0  0  0  0  0
    4.5079    0.4125    0.0000 C   0  0  0  0  0  0  0  0  0  0  0  0
    5.9369   -0.4125    0.0000 C   0  0  0  0  0  0  0  0  0  0  0  0
    5.2223   -0.8250    0.0000 C   0  0  0  0  0  0  0  0  0  0  0  0
    3.7934   -1.6500    0.0000 C   0  0  0  0  0  0  0  0  0  0  0  0
    5.9369    0.4125    0.0000 C   0  0  0  0  0  0  0  0  0  0  0  0
    6.6743   -0.8536    0.0000 C   0  0  0  0  0  0  0  0  0  0  0  0
    3.7934    0.8250    0.0000 C   0  0  0  0  0  0  0  0  0  0  0  0
    6.6743    0.8536    0.0000 C   0  0  0  0  0  0  0  0  0  0  0  0
    3.0789   -2.0625    0.0000 C   0  0  0  0  0  0  0  0  0  0  0  0
    4.5079   -2.0625    0.0000 C   0  0  0  0  0  0  0  0  0  0  0  0
    7.4219   -0.4297    0.0000 C   0  0  0  0  0  0  0  0  0  0  0  0
    7.4219    0.4297    0.0000 C   0  0  0  0  0  0  0  0  0  0  0  0
    3.7934    1.6500    0.0000 C   0  0  0  0  0  0  0  0  0  0  0  0
    3.0789   -2.8875    0.0000 C   0  0  0  0  0  0  0  0  0  0  0  0
    4.5079   -2.8875    0.0000 C   0  0  0  0  0  0  0  0  0  0  0  0
    3.7934   -3.3000    0.0000 C   0  0  0  0  0  0  0  0  0  0  0  0
    3.0789    2.0625    0.0000 C   0  0  0  0  0  0  0  0  0  0  0  0
    3.0789    2.8875    0.0000 C   0  0  0  0  0  0  0  0  0  0  0  0
    2.3644    1.6500    0.0000 C   0  0  0  0  0  0  0  0  0  0  0  0
    2.3644    3.3000    0.0000 C   0  0  0  0  0  0  0  0  0  0  0  0
    1.6500    2.8875    0.0000 C   0  0  0  0  0  0  0  0  0  0  0  0
  1  8  2  0  0  0  0
  2  5  1  0  0  0  0
  2  6  1  0  0  0  0
  2  8  1  0  0  0  0
  3  6  2  0  0  0  0
  3 10  1  0  0  0  0
  4 24  2  0  0  0  0
  4 26  1  0  0  0  0
  5  9  1  0  0  0  0
  6 12  1  0  0  0  0
  7  8  1  0  0  0  0
  7 10  1  0  0  0  0
  7 11  2  0  0  0  0
  9 14  2  0  0  0  0
  9 15  1  0  0  0  0
 10 13  2  0  0  0  0
 11 16  1  0  0  0  0
 12 18  2  0  0  0  0
 13 17  1  0  0  0  0
 14 19  1  0  0  0  0
 15 20  2  0  0  0  0
 16 17  2  0  0  0  0
 18 22  1  0  0  0  0
 19 21  2  0  0  0  0
 20 21  1  0  0  0  0
 22 23  2  0  0  0  0
 22 24  1  0  0  0  0
 23 25  1  0  0  0  0
 25 26  2  0  0  0  0
M  END
> <From>
www.bindingDB.org

> <BindingDB Reactant_set_id>
51278770

> <Ligand InChI>
InChI=1S/C22H17N3O/c26-22-19-10-4-5-11-20(19)24-21(13-12-17-9-6-14-23-15-17)25(22)16-18-7-2-1-3-8-18/h1-15H,16H2/b13-12+

> <Ligand InChI Key>
GEKDQXSPTHHANP-OUKQBFOZSA-N

> <BindingDB MonomerID>
48804

> <BindingDB Ligand Name>
3-(phenylmethyl)-2-[(E)-2-(3-pyridinyl)ethenyl]-4-quinazolinone::3-(phenylmethyl)-2-[(E)-2-pyridin-3-ylethenyl]quinazolin-4-one::3-benzyl-2-[(E)-2-(3-pyridyl)vinyl]quinazolin-4-one::3-benzyl-2-[(E)-2-pyridin-3-ylethenyl]quinazolin-4-one::MLS000709026::SMR000289793::cid_5738263

> <Target Name>
DNA repair protein RAD51 homolog 1

> <Target Source Organism According to Curator or DataSource>
Homo sapiens

> <Ki (nM)>


> <IC50 (nM)>
 6000

> <Kd (nM)>


> <EC50 (nM)>


> <kon (M-1-s-1)>


> <koff (s-1)>


> <pH>


> <Temp C>


> <Curation/DataSource>
ChEMBL

> <Article DOI>
10.1016/j.bmcl.2019.06.024

> <BindingDB Entry DOI>
10.7270/Q289198W

> <PMID>
31278031

> <PubChem AID>


> <Patent Number>


> <Authors>
Radhakrishnan, S; Syed, R; Takei, H; Kobayashi, IS; Nakamura, E; Sultana, F; Kamal, A; Tenen, DG; Kobayashi, SS

> <Date of publication>
8/15/2019

> <Date in BindingDB>
2/23/2021

> <Institution>
National University of Singapore

> <Link to Ligand in BindingDB>
http://www.bindingdb.org/bind/chemsearch/marvin/MolStructure.jsp?monomerid=48804

> <Link to Ligand-Target Pair in BindingDB>
http://www.bindingdb.org/jsp/dbsearch/PrimarySearch_ki.jsp?energyterm=kJ/mole&tag=pol&polymerid=4676&target=DNA+repair+protein+RAD51+homolog+1&column=ki&startPg=0&Increment=50&submit=Search

> <Link to Ligand-Target Pair in BindingDB>
http://www.bindingdb.org/jsp/dbsearch/PrimarySearch_ki.jsp?energyterm=kJ/mole&tag=r21&monomerid=48804&enzyme=DNA+repair+protein+RAD51+homolog+1&column=ki&startPg=0&Increment=50&submit=Search

> <Ligand HET ID in PDB>


> <PDB ID(s) for Ligand-Target Complex>


> <PubChem CID of Ligand>
5738263

> <PubChem SID of Ligand>
252629091

> <ChEBI ID of Ligand>


> <ChEMBL ID of Ligand>


> <DrugBank ID of Ligand>


> <IUPHAR_GRAC ID of Ligand>


> <KEGG ID of Ligand>


> <ZINC ID of Ligand>
ZINC04537641

> <Number of Protein Chains in Target (bigger than 1 implies a multichain complex)>
1

> <BindingDB Target Chain Sequence>
MAMQMQLEANADTSVEEESFGPQPISRLEQCGINANDVKKLEEAGFHTVEAVAYAPKKELINIKGISEAKADKILAEAAKLVPMGFTTATEFHQRRSEIIQITTGSKELDKLLQGGIETGSITEMFGEFRTGKTQICHTLAVTCQLPIDRGGGEGKAMYIDTEGTFRPERLLAVAERYGLSGSDVLDNVAYARAFNTDHQTQLLYQASAMMVESRYALLIVDSATALYRTDYSGRGELSARQMHLARFLRMLLRLADEFGVAVVITNQVVAQVDGAAMFAADPKKPIGGNIIAHASTTRLYLRKGRGETRICKIYDSPCLPEAEAMFAINADGVGDAKD

> <PDB ID(s) of Target Chain>
1N0W,5JZC,5NP7,5NWL,8BQ2,8BR2,8BSC

> <UniProt (SwissProt) Recommended Name of Target Chain>
DNA repair protein RAD51 homolog 1

> <UniProt (SwissProt) Entry Name of Target Chain>
RAD51_HUMAN

> <UniProt (SwissProt) Primary ID of Target Chain>
Q06609

> <UniProt (SwissProt) Secondary ID(s) of Target Chain>
B0FXP0 B2R8T6 Q6FHX9 Q6ZNA8 Q9BV60

> <UniProt (SwissProt) Alternative ID(s) of Target Chain>


> <UniProt (TrEMBL) Submitted Name of Target Chain>


> <UniProt (TrEMBL) Entry Name of Target Chain>


> <UniProt (TrEMBL) Primary ID of Target Chain>


> <UniProt (TrEMBL) Secondary ID(s) of Target Chain>


> <UniProt (TrEMBL) Alternative ID(s) of Target Chain>


$$$$
 
     RDKit          2D

 34 37  0  0  0  0  0  0  0  0999 V2000
    4.3351  -18.2214    0.0000 C   0  0  0  0  0  0  0  0  0  0  0  0
    4.5946  -19.0045    0.0000 O   0  0  0  0  0  0  0  0  0  0  0  0
    5.4026  -19.1713    0.0000 C   0  0  0  0  0  0  0  0  0  0  0  0
    5.7417  -19.9203    0.0000 N   0  0  0  0  0  0  0  0  0  0  0  0
    6.5616  -19.8293    0.0000 C   0  0  0  0  0  0  0  0  0  0  0  0
    6.7285  -19.0213    0.0000 N   0  0  0  0  0  0  0  0  0  0  0  0
    6.0115  -18.6131    0.0000 N   0  0  0  0  0  0  0  0  0  0  0  0
    5.3335  -20.6373    0.0000 C   0  0  0  0  0  0  0  0  0  0  0  0
    5.7504  -21.3492    0.0000 C   0  0  0  0  0  0  0  0  0  0  0  0
    5.3422  -22.0662    0.0000 C   0  0  0  0  0  0  0  0  0  0  0  0
    5.7620  -22.7726    0.0000 C   0  0  0  0  0  0  0  0  0  0  0  0
    7.1172  -20.4392    0.0000 S   0  0  0  0  0  0  0  0  0  0  0  0
    7.9232  -20.2629    0.0000 C   0  0  0  0  0  0  0  0  0  0  0  0
    8.4788  -20.8728    0.0000 C   0  0  0  0  0  0  0  0  0  0  0  0
    9.2847  -20.6965    0.0000 N   0  0  0  0  0  0  0  0  0  0  0  0
    8.2284  -21.6588    0.0000 O   0  0  0  0  0  0  0  0  0  0  0  0
    9.8404  -21.3064    0.0000 C   0  0  0  0  0  0  0  0  0  0  0  0
    5.3585  -23.4879    0.0000 C   0  0  0  0  0  0  0  0  0  0  0  0
    5.7775  -24.1938    0.0000 C   0  0  0  0  0  0  0  0  0  0  0  0
    6.6002  -24.1839    0.0000 C   0  0  0  0  0  0  0  0  0  0  0  0
    7.0018  -23.4621    0.0000 C   0  0  0  0  0  0  0  0  0  0  0  0
    6.5804  -22.7591    0.0000 C   0  0  0  0  0  0  0  0  0  0  0  0
    9.6764  -22.1118    0.0000 C   0  0  0  0  0  0  0  0  0  0  0  0
   10.3933  -22.5201    0.0000 C   0  0  0  0  0  0  0  0  0  0  0  0
   11.0033  -21.9644    0.0000 C   0  0  0  0  0  0  0  0  0  0  0  0
   10.6632  -21.2128    0.0000 C   0  0  0  0  0  0  0  0  0  0  0  0
    4.8834  -17.6041    0.0000 N   0  0  0  0  0  0  0  0  0  0  0  0
    4.6268  -16.8238    0.0000 C   0  0  0  0  0  0  0  0  0  0  0  0
    3.8195  -16.6528    0.0000 C   0  0  0  0  0  0  0  0  0  0  0  0
    3.2689  -17.2685    0.0000 C   0  0  0  0  0  0  0  0  0  0  0  0
    3.5257  -18.0553    0.0000 C   0  0  0  0  0  0  0  0  0  0  0  0
    5.1776  -16.2096    0.0000 C   0  0  0  0  0  0  0  0  0  0  0  0
    2.9773  -18.6759    0.0000 C   0  0  0  0  0  0  0  0  0  0  0  0
    2.4279  -19.2913    0.0000 N   0  0  0  0  0  0  0  0  0  0  0  0
  1  2  1  0
  2  3  1  0
  3  4  1  0
  4  5  1  0
  5  6  2  0
  6  7  1  0
  7  3  2  0
  4  8  1  0
  8  9  1  0
  9 10  1  0
 11 10  1  0
  5 12  1  0
 12 13  1  0
 13 14  1  0
 14 15  1  0
 14 16  2  0
 15 17  1  0
 11 18  2  0
 18 19  1  0
 19 20  2  0
 20 21  1  0
 21 22  2  0
 22 11  1  0
 17 23  1  0
 23 24  1  0
 24 25  1  0
 25 26  1  0
 26 17  1  0
  1 27  1  0
  1 31  2  0
 27 28  1  0
 28 29  1  0
 29 30  2  0
 30 31  1  0
 28 32  1  0
 33 34  3  0
 31 33  1  0
M  END
> <From>
www.bindingDB.org

> <BindingDB Reactant_set_id>
51327177

> <Ligand InChI>
InChI=1S/C25H30N6O2S/c1-18-13-14-20(16-26)23(27-18)33-24-29-30-25(34-17-22(32)28-21-11-5-6-12-21)31(24)15-7-10-19-8-3-2-4-9-19/h2-4,8-9,13-14,18,21,27H,5-7,10-12,15,17H2,1H3,(H,28,32)

> <Ligand InChI Key>
HWEDGRGKWOACCG-UHFFFAOYSA-N

> <BindingDB MonomerID>
50536924

> <BindingDB Ligand Name>
CHEMBL4538360

> <Target Name>
DNA repair protein RAD51 homolog 1

> <Target Source Organism According to Curator or DataSource>
Homo sapiens

> <Ki (nM)>


> <IC50 (nM)>


> <Kd (nM)>


> <EC50 (nM)>
 33000

> <kon (M-1-s-1)>


> <koff (s-1)>


> <pH>


> <Temp C>


> <Curation/DataSource>
ChEMBL

> <Article DOI>
10.1016/j.ejmech.2019.01.008

> <BindingDB Entry DOI>
10.7270/Q26H4MZ5

> <PMID>
30660828

> <PubChem AID>


> <Patent Number>


> <Authors>
Roberti, M; Schipani, F; Bagnolini, G; Milano, D; Giacomini, E; Falchi, F; Balboni, A; Manerba, M; Farabegoli, F; De Franco, F; Robertson, J; Minucci, S; Pallavicini, I; Di Stefano, G; Girotto, S; Pellicciari, R; Cavalli, A

> <Date of publication>
3/1/2019

> <Date in BindingDB>
3/2/2021

> <Institution>
University of Bologna

> <Link to Ligand in BindingDB>
http://www.bindingdb.org/bind/chemsearch/marvin/MolStructure.jsp?monomerid=50536924

> <Link to Ligand-Target Pair in BindingDB>
http://www.bindingdb.org/jsp/dbsearch/PrimarySearch_ki.jsp?energyterm=kJ/mole&tag=pol&polymerid=4676&target=DNA+repair+protein+RAD51+homolog+1&column=ki&startPg=0&Increment=50&submit=Search

> <Link to Ligand-Target Pair in BindingDB>
http://www.bindingdb.org/jsp/dbsearch/PrimarySearch_ki.jsp?energyterm=kJ/mole&tag=r21&monomerid=50536924&enzyme=DNA+repair+protein+RAD51+homolog+1&column=ki&startPg=0&Increment=50&submit=Search

> <Ligand HET ID in PDB>


> <PDB ID(s) for Ligand-Target Complex>


> <PubChem CID of Ligand>
155549425

> <PubChem SID of Ligand>
440827748

> <ChEBI ID of Ligand>


> <ChEMBL ID of Ligand>


> <DrugBank ID of Ligand>


> <IUPHAR_GRAC ID of Ligand>


> <KEGG ID of Ligand>


> <ZINC ID of Ligand>


> <Number of Protein Chains in Target (bigger than 1 implies a multichain complex)>
1

> <BindingDB Target Chain Sequence>
MAMQMQLEANADTSVEEESFGPQPISRLEQCGINANDVKKLEEAGFHTVEAVAYAPKKELINIKGISEAKADKILAEAAKLVPMGFTTATEFHQRRSEIIQITTGSKELDKLLQGGIETGSITEMFGEFRTGKTQICHTLAVTCQLPIDRGGGEGKAMYIDTEGTFRPERLLAVAERYGLSGSDVLDNVAYARAFNTDHQTQLLYQASAMMVESRYALLIVDSATALYRTDYSGRGELSARQMHLARFLRMLLRLADEFGVAVVITNQVVAQVDGAAMFAADPKKPIGGNIIAHASTTRLYLRKGRGETRICKIYDSPCLPEAEAMFAINADGVGDAKD

> <PDB ID(s) of Target Chain>
1N0W,5JZC,5NP7,5NWL,8BQ2,8BR2,8BSC

> <UniProt (SwissProt) Recommended Name of Target Chain>
DNA repair protein RAD51 homolog 1

> <UniProt (SwissProt) Entry Name of Target Chain>
RAD51_HUMAN

> <UniProt (SwissProt) Primary ID of Target Chain>
Q06609

> <UniProt (SwissProt) Secondary ID(s) of Target Chain>
B0FXP0 B2R8T6 Q6FHX9 Q6ZNA8 Q9BV60

> <UniProt (SwissProt) Alternative ID(s) of Target Chain>


> <UniProt (TrEMBL) Submitted Name of Target Chain>


> <UniProt (TrEMBL) Entry Name of Target Chain>


> <UniProt (TrEMBL) Primary ID of Target Chain>


> <UniProt (TrEMBL) Secondary ID(s) of Target Chain>


> <UniProt (TrEMBL) Alternative ID(s) of Target Chain>


$$$$
 
     RDKit          2D

 35 39  0  0  0  0  0  0  0  0999 V2000
   27.0856   -2.5341    0.0000 C   0  0  0  0  0  0  0  0  0  0  0  0
   27.0844   -3.3536    0.0000 C   0  0  0  0  0  0  0  0  0  0  0  0
   27.7925   -3.7626    0.0000 C   0  0  0  0  0  0  0  0  0  0  0  0
   27.7907   -2.1252    0.0000 C   0  0  0  0  0  0  0  0  0  0  0  0
   28.4993   -2.5305    0.0000 C   0  0  0  0  0  0  0  0  0  0  0  0
   28.5041   -3.3536    0.0000 C   0  0  0  0  0  0  0  0  0  0  0  0
   29.2885   -3.6035    0.0000 N   0  0  0  0  0  0  0  0  0  0  0  0
   29.7685   -2.9346    0.0000 C   0  0  0  0  0  0  0  0  0  0  0  0
   29.2807   -2.2716    0.0000 O   0  0  0  0  0  0  0  0  0  0  0  0
   30.5857   -2.9298    0.0000 O   0  0  0  0  0  0  0  0  0  0  0  0
   29.5456   -4.3792    0.0000 C   0  0  0  0  0  0  0  0  0  0  0  0
   30.3459   -4.5444    0.0000 C   0  0  0  0  0  0  0  0  0  0  0  0
   30.6818   -5.2863    0.0000 N   0  0  0  0  0  0  0  0  0  0  0  0
   31.4940   -5.1962    0.0000 C   0  0  0  0  0  0  0  0  0  0  0  0
   31.6593   -4.3958    0.0000 N   0  0  0  0  0  0  0  0  0  0  0  0
   30.9491   -3.9915    0.0000 N   0  0  0  0  0  0  0  0  0  0  0  0
   30.2775   -5.9965    0.0000 C   0  0  0  0  0  0  0  0  0  0  0  0
   30.6904   -6.7017    0.0000 C   0  0  0  0  0  0  0  0  0  0  0  0
   30.2861   -7.4119    0.0000 C   0  0  0  0  0  0  0  0  0  0  0  0
   30.7019   -8.1116    0.0000 C   0  0  0  0  0  0  0  0  0  0  0  0
   32.0443   -5.8003    0.0000 S   0  0  0  0  0  0  0  0  0  0  0  0
   32.8427   -5.6257    0.0000 C   0  0  0  0  0  0  0  0  0  0  0  0
   33.3930   -6.2298    0.0000 C   0  0  0  0  0  0  0  0  0  0  0  0
   34.1913   -6.0552    0.0000 N   0  0  0  0  0  0  0  0  0  0  0  0
   33.1450   -7.0084    0.0000 O   0  0  0  0  0  0  0  0  0  0  0  0
   34.7417   -6.6593    0.0000 C   0  0  0  0  0  0  0  0  0  0  0  0
   30.3022   -8.8201    0.0000 C   0  0  0  0  0  0  0  0  0  0  0  0
   30.7173   -9.5194    0.0000 C   0  0  0  0  0  0  0  0  0  0  0  0
   31.5322   -9.5096    0.0000 C   0  0  0  0  0  0  0  0  0  0  0  0
   31.9300   -8.7946    0.0000 C   0  0  0  0  0  0  0  0  0  0  0  0
   31.5126   -8.0982    0.0000 C   0  0  0  0  0  0  0  0  0  0  0  0
   34.5793   -7.4571    0.0000 C   0  0  0  0  0  0  0  0  0  0  0  0
   35.2894   -7.8615    0.0000 C   0  0  0  0  0  0  0  0  0  0  0  0
   35.8936   -7.3111    0.0000 C   0  0  0  0  0  0  0  0  0  0  0  0
   35.5567   -6.5666    0.0000 C   0  0  0  0  0  0  0  0  0  0  0  0
  1  2  2  0
  2  3  1  0
  3  6  2  0
  5  4  2  0
  4  1  1  0
  5  6  1  0
  6  7  1  0
  7  8  1  0
  8  9  1  0
  9  5  1  0
  8 10  2  0
  7 11  1  0
 11 12  1  0
 12 13  1  0
 13 14  1  0
 14 15  2  0
 15 16  1  0
 16 12  2  0
 13 17  1  0
 17 18  1  0
 18 19  1  0
 20 19  1  0
 14 21  1  0
 21 22  1  0
 22 23  1  0
 23 24  1  0
 23 25  2  0
 24 26  1  0
 20 27  2  0
 27 28  1  0
 28 29  2  0
 29 30  1  0
 30 31  2  0
 31 20  1  0
 26 32  1  0
 32 33  1  0
 33 34  1  0
 34 35  1  0
 35 26  1  0
M  END
> <From>
www.bindingDB.org

> <BindingDB Reactant_set_id>
51327178

> <Ligand InChI>
InChI=1S/C26H29N5O3S/c32-24(27-20-12-4-5-13-20)18-35-25-29-28-23(30(25)16-8-11-19-9-2-1-3-10-19)17-31-21-14-6-7-15-22(21)34-26(31)33/h1-3,6-7,9-10,14-15,20H,4-5,8,11-13,16-18H2,(H,27,32)

> <Ligand InChI Key>
XUEBZLIPXXPWPZ-UHFFFAOYSA-N

> <BindingDB MonomerID>
50536925

> <BindingDB Ligand Name>
CHEMBL4552593

> <Target Name>
DNA repair protein RAD51 homolog 1

> <Target Source Organism According to Curator or DataSource>
Homo sapiens

> <Ki (nM)>


> <IC50 (nM)>


> <Kd (nM)>


> <EC50 (nM)>
 90000

> <kon (M-1-s-1)>


> <koff (s-1)>


> <pH>


> <Temp C>


> <Curation/DataSource>
ChEMBL

> <Article DOI>
10.1016/j.ejmech.2019.01.008

> <BindingDB Entry DOI>
10.7270/Q26H4MZ5

> <PMID>
30660828

> <PubChem AID>


> <Patent Number>


> <Authors>
Roberti, M; Schipani, F; Bagnolini, G; Milano, D; Giacomini, E; Falchi, F; Balboni, A; Manerba, M; Farabegoli, F; De Franco, F; Robertson, J; Minucci, S; Pallavicini, I; Di Stefano, G; Girotto, S; Pellicciari, R; Cavalli, A

> <Date of publication>
3/1/2019

> <Date in BindingDB>
3/2/2021

> <Institution>
University of Bologna

> <Link to Ligand in BindingDB>
http://www.bindingdb.org/bind/chemsearch/marvin/MolStructure.jsp?monomerid=50536925

> <Link to Ligand-Target Pair in BindingDB>
http://www.bindingdb.org/jsp/dbsearch/PrimarySearch_ki.jsp?energyterm=kJ/mole&tag=pol&polymerid=4676&target=DNA+repair+protein+RAD51+homolog+1&column=ki&startPg=0&Increment=50&submit=Search

> <Link to Ligand-Target Pair in BindingDB>
http://www.bindingdb.org/jsp/dbsearch/PrimarySearch_ki.jsp?energyterm=kJ/mole&tag=r21&monomerid=50536925&enzyme=DNA+repair+protein+RAD51+homolog+1&column=ki&startPg=0&Increment=50&submit=Search

> <Ligand HET ID in PDB>


> <PDB ID(s) for Ligand-Target Complex>


> <PubChem CID of Ligand>
155556006

> <PubChem SID of Ligand>
440827749

> <ChEBI ID of Ligand>


> <ChEMBL ID of Ligand>


> <DrugBank ID of Ligand>


> <IUPHAR_GRAC ID of Ligand>


> <KEGG ID of Ligand>


> <ZINC ID of Ligand>


> <Number of Protein Chains in Target (bigger than 1 implies a multichain complex)>
1

> <BindingDB Target Chain Sequence>
MAMQMQLEANADTSVEEESFGPQPISRLEQCGINANDVKKLEEAGFHTVEAVAYAPKKELINIKGISEAKADKILAEAAKLVPMGFTTATEFHQRRSEIIQITTGSKELDKLLQGGIETGSITEMFGEFRTGKTQICHTLAVTCQLPIDRGGGEGKAMYIDTEGTFRPERLLAVAERYGLSGSDVLDNVAYARAFNTDHQTQLLYQASAMMVESRYALLIVDSATALYRTDYSGRGELSARQMHLARFLRMLLRLADEFGVAVVITNQVVAQVDGAAMFAADPKKPIGGNIIAHASTTRLYLRKGRGETRICKIYDSPCLPEAEAMFAINADGVGDAKD

> <PDB ID(s) of Target Chain>
1N0W,5JZC,5NP7,5NWL,8BQ2,8BR2,8BSC

> <UniProt (SwissProt) Recommended Name of Target Chain>
DNA repair protein RAD51 homolog 1

> <UniProt (SwissProt) Entry Name of Target Chain>
RAD51_HUMAN

> <UniProt (SwissProt) Primary ID of Target Chain>
Q06609

> <UniProt (SwissProt) Secondary ID(s) of Target Chain>
B0FXP0 B2R8T6 Q6FHX9 Q6ZNA8 Q9BV60

> <UniProt (SwissProt) Alternative ID(s) of Target Chain>


> <UniProt (TrEMBL) Submitted Name of Target Chain>


> <UniProt (TrEMBL) Entry Name of Target Chain>


> <UniProt (TrEMBL) Primary ID of Target Chain>


> <UniProt (TrEMBL) Secondary ID(s) of Target Chain>


> <UniProt (TrEMBL) Alternative ID(s) of Target Chain>


$$$$
 
     RDKit          2D

 33 37  0  0  0  0  0  0  0  0999 V2000
   25.6122  -16.6822    0.0000 C   0  0  0  0  0  0  0  0  0  0  0  0
   25.6110  -17.5018    0.0000 C   0  0  0  0  0  0  0  0  0  0  0  0
   26.3191  -17.9107    0.0000 C   0  0  0  0  0  0  0  0  0  0  0  0
   26.3173  -16.2734    0.0000 C   0  0  0  0  0  0  0  0  0  0  0  0
   27.0259  -16.6786    0.0000 C   0  0  0  0  0  0  0  0  0  0  0  0
   27.0307  -17.5018    0.0000 C   0  0  0  0  0  0  0  0  0  0  0  0
   27.8151  -17.7516    0.0000 N   0  0  0  0  0  0  0  0  0  0  0  0
   28.2951  -17.0828    0.0000 C   0  0  0  0  0  0  0  0  0  0  0  0
   27.8073  -16.4197    0.0000 S   0  0  0  0  0  0  0  0  0  0  0  0
   29.1123  -17.0779    0.0000 O   0  0  0  0  0  0  0  0  0  0  0  0
   28.0721  -18.5273    0.0000 C   0  0  0  0  0  0  0  0  0  0  0  0
   28.8725  -18.6926    0.0000 C   0  0  0  0  0  0  0  0  0  0  0  0
   29.2084  -19.4345    0.0000 N   0  0  0  0  0  0  0  0  0  0  0  0
   30.0206  -19.3443    0.0000 C   0  0  0  0  0  0  0  0  0  0  0  0
   30.1858  -18.5439    0.0000 N   0  0  0  0  0  0  0  0  0  0  0  0
   29.4757  -18.1396    0.0000 N   0  0  0  0  0  0  0  0  0  0  0  0
   28.8041  -20.1446    0.0000 C   0  0  0  0  0  0  0  0  0  0  0  0
   29.2169  -20.8498    0.0000 C   0  0  0  0  0  0  0  0  0  0  0  0
   28.8126  -21.5600    0.0000 C   0  0  0  0  0  0  0  0  0  0  0  0
   29.2285  -22.2598    0.0000 C   0  0  0  0  0  0  0  0  0  0  0  0
   30.5709  -19.9484    0.0000 S   0  0  0  0  0  0  0  0  0  0  0  0
   31.3692  -19.7738    0.0000 C   0  0  0  0  0  0  0  0  0  0  0  0
   31.9196  -20.3779    0.0000 C   0  0  0  0  0  0  0  0  0  0  0  0
   32.7179  -20.2034    0.0000 N   0  0  0  0  0  0  0  0  0  0  0  0
   31.6716  -21.1566    0.0000 O   0  0  0  0  0  0  0  0  0  0  0  0
   33.2683  -20.8075    0.0000 C   0  0  0  0  0  0  0  0  0  0  0  0
   28.8287  -22.9682    0.0000 C   0  0  0  0  0  0  0  0  0  0  0  0
   29.2439  -23.6675    0.0000 C   0  0  0  0  0  0  0  0  0  0  0  0
   30.0587  -23.6577    0.0000 C   0  0  0  0  0  0  0  0  0  0  0  0
   30.4566  -22.9427    0.0000 C   0  0  0  0  0  0  0  0  0  0  0  0
   30.0391  -22.2464    0.0000 C   0  0  0  0  0  0  0  0  0  0  0  0
   33.4444  -21.6023    0.0000 C   0  0  0  0  0  0  0  0  0  0  0  0
   34.0485  -21.0520    0.0000 C   0  0  0  0  0  0  0  0  0  0  0  0
  1  2  2  0
  2  3  1  0
  3  6  2  0
  5  4  2  0
  4  1  1  0
  5  6  1  0
  6  7  1  0
  7  8  1  0
  8  9  1  0
  9  5  1  0
  8 10  2  0
  7 11  1  0
 11 12  1  0
 12 13  1  0
 13 14  1  0
 14 15  2  0
 15 16  1  0
 16 12  2  0
 13 17  1  0
 17 18  1  0
 18 19  1  0
 20 19  1  0
 14 21  1  0
 21 22  1  0
 22 23  1  0
 23 24  1  0
 23 25  2  0
 24 26  1  0
 20 27  2  0
 27 28  1  0
 28 29  2  0
 29 30  1  0
 30 31  2  0
 31 20  1  0
 32 26  1  0
 33 32  1  0
 26 33  1  0
M  END
> <From>
www.bindingDB.org

> <BindingDB Reactant_set_id>
51327179

> <Ligand InChI>
InChI=1S/C24H25N5O2S2/c30-22(25-18-12-13-18)16-32-23-27-26-21(28(23)14-6-9-17-7-2-1-3-8-17)15-29-19-10-4-5-11-20(19)33-24(29)31/h1-5,7-8,10-11,18H,6,9,12-16H2,(H,25,30)

> <Ligand InChI Key>
INGKYJLJBNXEDF-UHFFFAOYSA-N

> <BindingDB MonomerID>
50536926

> <BindingDB Ligand Name>
CHEMBL4559055

> <Target Name>
DNA repair protein RAD51 homolog 1

> <Target Source Organism According to Curator or DataSource>
Homo sapiens

> <Ki (nM)>


> <IC50 (nM)>


> <Kd (nM)>


> <EC50 (nM)>
 24000

> <kon (M-1-s-1)>


> <koff (s-1)>


> <pH>


> <Temp C>


> <Curation/DataSource>
ChEMBL

> <Article DOI>
10.1016/j.ejmech.2019.01.008

> <BindingDB Entry DOI>
10.7270/Q26H4MZ5

> <PMID>
30660828

> <PubChem AID>


> <Patent Number>


> <Authors>
Roberti, M; Schipani, F; Bagnolini, G; Milano, D; Giacomini, E; Falchi, F; Balboni, A; Manerba, M; Farabegoli, F; De Franco, F; Robertson, J; Minucci, S; Pallavicini, I; Di Stefano, G; Girotto, S; Pellicciari, R; Cavalli, A

> <Date of publication>
3/1/2019

> <Date in BindingDB>
3/2/2021

> <Institution>
University of Bologna

> <Link to Ligand in BindingDB>
http://www.bindingdb.org/bind/chemsearch/marvin/MolStructure.jsp?monomerid=50536926

> <Link to Ligand-Target Pair in BindingDB>
http://www.bindingdb.org/jsp/dbsearch/PrimarySearch_ki.jsp?energyterm=kJ/mole&tag=pol&polymerid=4676&target=DNA+repair+protein+RAD51+homolog+1&column=ki&startPg=0&Increment=50&submit=Search

> <Link to Ligand-Target Pair in BindingDB>
http://www.bindingdb.org/jsp/dbsearch/PrimarySearch_ki.jsp?energyterm=kJ/mole&tag=r21&monomerid=50536926&enzyme=DNA+repair+protein+RAD51+homolog+1&column=ki&startPg=0&Increment=50&submit=Search

> <Ligand HET ID in PDB>


> <PDB ID(s) for Ligand-Target Complex>


> <PubChem CID of Ligand>
155557552

> <PubChem SID of Ligand>
440827750

> <ChEBI ID of Ligand>


> <ChEMBL ID of Ligand>


> <DrugBank ID of Ligand>


> <IUPHAR_GRAC ID of Ligand>


> <KEGG ID of Ligand>


> <ZINC ID of Ligand>


> <Number of Protein Chains in Target (bigger than 1 implies a multichain complex)>
1

> <BindingDB Target Chain Sequence>
MAMQMQLEANADTSVEEESFGPQPISRLEQCGINANDVKKLEEAGFHTVEAVAYAPKKELINIKGISEAKADKILAEAAKLVPMGFTTATEFHQRRSEIIQITTGSKELDKLLQGGIETGSITEMFGEFRTGKTQICHTLAVTCQLPIDRGGGEGKAMYIDTEGTFRPERLLAVAERYGLSGSDVLDNVAYARAFNTDHQTQLLYQASAMMVESRYALLIVDSATALYRTDYSGRGELSARQMHLARFLRMLLRLADEFGVAVVITNQVVAQVDGAAMFAADPKKPIGGNIIAHASTTRLYLRKGRGETRICKIYDSPCLPEAEAMFAINADGVGDAKD

> <PDB ID(s) of Target Chain>
1N0W,5JZC,5NP7,5NWL,8BQ2,8BR2,8BSC

> <UniProt (SwissProt) Recommended Name of Target Chain>
DNA repair protein RAD51 homolog 1

> <UniProt (SwissProt) Entry Name of Target Chain>
RAD51_HUMAN

> <UniProt (SwissProt) Primary ID of Target Chain>
Q06609

> <UniProt (SwissProt) Secondary ID(s) of Target Chain>
B0FXP0 B2R8T6 Q6FHX9 Q6ZNA8 Q9BV60

> <UniProt (SwissProt) Alternative ID(s) of Target Chain>


> <UniProt (TrEMBL) Submitted Name of Target Chain>


> <UniProt (TrEMBL) Entry Name of Target Chain>


> <UniProt (TrEMBL) Primary ID of Target Chain>


> <UniProt (TrEMBL) Secondary ID(s) of Target Chain>


> <UniProt (TrEMBL) Alternative ID(s) of Target Chain>


$$$$
 
     RDKit          2D

 36 40  0  0  0  0  0  0  0  0999 V2000
   26.1700   -8.9127    0.0000 C   0  0  0  0  0  0  0  0  0  0  0  0
   26.1689   -9.7400    0.0000 C   0  0  0  0  0  0  0  0  0  0  0  0
   26.8837  -10.1529    0.0000 C   0  0  0  0  0  0  0  0  0  0  0  0
   26.8818   -8.4998    0.0000 C   0  0  0  0  0  0  0  0  0  0  0  0
   27.5972   -8.9090    0.0000 C   0  0  0  0  0  0  0  0  0  0  0  0
   27.6022   -9.7401    0.0000 C   0  0  0  0  0  0  0  0  0  0  0  0
   28.3940   -9.9923    0.0000 N   0  0  0  0  0  0  0  0  0  0  0  0
   28.8786   -9.3171    0.0000 C   0  0  0  0  0  0  0  0  0  0  0  0
   28.3861   -8.6476    0.0000 S   0  0  0  0  0  0  0  0  0  0  0  0
   29.7036   -9.3122    0.0000 O   0  0  0  0  0  0  0  0  0  0  0  0
   28.6536  -10.7754    0.0000 C   0  0  0  0  0  0  0  0  0  0  0  0
   29.4615  -10.9422    0.0000 C   0  0  0  0  0  0  0  0  0  0  0  0
   29.8006  -11.6912    0.0000 N   0  0  0  0  0  0  0  0  0  0  0  0
   30.6206  -11.6003    0.0000 C   0  0  0  0  0  0  0  0  0  0  0  0
   30.7875  -10.7922    0.0000 N   0  0  0  0  0  0  0  0  0  0  0  0
   30.0706  -10.3840    0.0000 N   0  0  0  0  0  0  0  0  0  0  0  0
   29.3925  -12.4082    0.0000 C   0  0  0  0  0  0  0  0  0  0  0  0
   29.8093  -13.1202    0.0000 C   0  0  0  0  0  0  0  0  0  0  0  0
   29.4011  -13.8372    0.0000 C   0  0  0  0  0  0  0  0  0  0  0  0
   29.8209  -14.5437    0.0000 C   0  0  0  0  0  0  0  0  0  0  0  0
   31.1763  -12.2101    0.0000 S   0  0  0  0  0  0  0  0  0  0  0  0
   31.9822  -12.0339    0.0000 C   0  0  0  0  0  0  0  0  0  0  0  0
   32.5378  -12.6438    0.0000 C   0  0  0  0  0  0  0  0  0  0  0  0
   33.3439  -12.4676    0.0000 N   0  0  0  0  0  0  0  0  0  0  0  0
   32.2874  -13.4299    0.0000 O   0  0  0  0  0  0  0  0  0  0  0  0
   33.8994  -13.0775    0.0000 C   0  0  0  0  0  0  0  0  0  0  0  0
   29.4174  -15.2589    0.0000 C   0  0  0  0  0  0  0  0  0  0  0  0
   29.8366  -15.9649    0.0000 C   0  0  0  0  0  0  0  0  0  0  0  0
   30.6592  -15.9550    0.0000 C   0  0  0  0  0  0  0  0  0  0  0  0
   31.0609  -15.2331    0.0000 C   0  0  0  0  0  0  0  0  0  0  0  0
   30.6394  -14.5302    0.0000 C   0  0  0  0  0  0  0  0  0  0  0  0
   33.6446  -13.8607    0.0000 C   0  0  0  0  0  0  0  0  0  0  0  0
   34.1963  -14.4693    0.0000 C   0  0  0  0  0  0  0  0  0  0  0  0
   35.0036  -14.2970    0.0000 C   0  0  0  0  0  0  0  0  0  0  0  0
   35.2561  -13.5107    0.0000 C   0  0  0  0  0  0  0  0  0  0  0  0
   34.7014  -12.8964    0.0000 C   0  0  0  0  0  0  0  0  0  0  0  0
  1  2  2  0
  2  3  1  0
  3  6  2  0
  5  4  2  0
  4  1  1  0
  5  6  1  0
  6  7  1  0
  7  8  1  0
  8  9  1  0
  9  5  1  0
  8 10  2  0
  7 11  1  0
 11 12  1  0
 12 13  1  0
 13 14  1  0
 14 15  2  0
 15 16  1  0
 16 12  2  0
 13 17  1  0
 17 18  1  0
 18 19  1  0
 20 19  1  0
 14 21  1  0
 21 22  1  0
 22 23  1  0
 23 24  1  0
 23 25  2  0
 24 26  1  0
 20 27  2  0
 27 28  1  0
 28 29  2  0
 29 30  1  0
 30 31  2  0
 31 20  1  0
 26 32  1  0
 26 36  1  0
 32 33  1  0
 33 34  1  0
 34 35  1  0
 35 36  1  0
M  END
> <From>
www.bindingDB.org

> <BindingDB Reactant_set_id>
51327180

> <Ligand InChI>
InChI=1S/C27H31N5O2S2/c33-25(28-21-13-5-2-6-14-21)19-35-26-30-29-24(31(26)17-9-12-20-10-3-1-4-11-20)18-32-22-15-7-8-16-23(22)36-27(32)34/h1,3-4,7-8,10-11,15-16,21H,2,5-6,9,12-14,17-19H2,(H,28,33)

> <Ligand InChI Key>
DWCUFXNQPXDQLU-UHFFFAOYSA-N

> <BindingDB MonomerID>
50536927

> <BindingDB Ligand Name>
CHEMBL4530772

> <Target Name>
DNA repair protein RAD51 homolog 1

> <Target Source Organism According to Curator or DataSource>
Homo sapiens

> <Ki (nM)>


> <IC50 (nM)>


> <Kd (nM)>


> <EC50 (nM)>
 8000

> <kon (M-1-s-1)>


> <koff (s-1)>


> <pH>


> <Temp C>


> <Curation/DataSource>
ChEMBL

> <Article DOI>
10.1016/j.ejmech.2019.01.008

> <BindingDB Entry DOI>
10.7270/Q26H4MZ5

> <PMID>
30660828

> <PubChem AID>


> <Patent Number>


> <Authors>
Roberti, M; Schipani, F; Bagnolini, G; Milano, D; Giacomini, E; Falchi, F; Balboni, A; Manerba, M; Farabegoli, F; De Franco, F; Robertson, J; Minucci, S; Pallavicini, I; Di Stefano, G; Girotto, S; Pellicciari, R; Cavalli, A

> <Date of publication>
3/1/2019

> <Date in BindingDB>
3/2/2021

> <Institution>
University of Bologna

> <Link to Ligand in BindingDB>
http://www.bindingdb.org/bind/chemsearch/marvin/MolStructure.jsp?monomerid=50536927

> <Link to Ligand-Target Pair in BindingDB>
http://www.bindingdb.org/jsp/dbsearch/PrimarySearch_ki.jsp?energyterm=kJ/mole&tag=pol&polymerid=4676&target=DNA+repair+protein+RAD51+homolog+1&column=ki&startPg=0&Increment=50&submit=Search

> <Link to Ligand-Target Pair in BindingDB>
http://www.bindingdb.org/jsp/dbsearch/PrimarySearch_ki.jsp?energyterm=kJ/mole&tag=r21&monomerid=50536927&enzyme=DNA+repair+protein+RAD51+homolog+1&column=ki&startPg=0&Increment=50&submit=Search

> <Ligand HET ID in PDB>


> <PDB ID(s) for Ligand-Target Complex>


> <PubChem CID of Ligand>
155546192

> <PubChem SID of Ligand>
440827751

> <ChEBI ID of Ligand>


> <ChEMBL ID of Ligand>


> <DrugBank ID of Ligand>


> <IUPHAR_GRAC ID of Ligand>


> <KEGG ID of Ligand>


> <ZINC ID of Ligand>


> <Number of Protein Chains in Target (bigger than 1 implies a multichain complex)>
1

> <BindingDB Target Chain Sequence>
MAMQMQLEANADTSVEEESFGPQPISRLEQCGINANDVKKLEEAGFHTVEAVAYAPKKELINIKGISEAKADKILAEAAKLVPMGFTTATEFHQRRSEIIQITTGSKELDKLLQGGIETGSITEMFGEFRTGKTQICHTLAVTCQLPIDRGGGEGKAMYIDTEGTFRPERLLAVAERYGLSGSDVLDNVAYARAFNTDHQTQLLYQASAMMVESRYALLIVDSATALYRTDYSGRGELSARQMHLARFLRMLLRLADEFGVAVVITNQVVAQVDGAAMFAADPKKPIGGNIIAHASTTRLYLRKGRGETRICKIYDSPCLPEAEAMFAINADGVGDAKD

> <PDB ID(s) of Target Chain>
1N0W,5JZC,5NP7,5NWL,8BQ2,8BR2,8BSC

> <UniProt (SwissProt) Recommended Name of Target Chain>
DNA repair protein RAD51 homolog 1

> <UniProt (SwissProt) Entry Name of Target Chain>
RAD51_HUMAN

> <UniProt (SwissProt) Primary ID of Target Chain>
Q06609

> <UniProt (SwissProt) Secondary ID(s) of Target Chain>
B0FXP0 B2R8T6 Q6FHX9 Q6ZNA8 Q9BV60

> <UniProt (SwissProt) Alternative ID(s) of Target Chain>


> <UniProt (TrEMBL) Submitted Name of Target Chain>


> <UniProt (TrEMBL) Entry Name of Target Chain>


> <UniProt (TrEMBL) Primary ID of Target Chain>


> <UniProt (TrEMBL) Secondary ID(s) of Target Chain>


> <UniProt (TrEMBL) Alternative ID(s) of Target Chain>


$$$$

  Mrv0541 01031814332D          

 35 39  0  0  0  0            999 V2000
    0.9552    5.0476    0.0000 O   0  0  0  0  0  0  0  0  0  0  0  0
    0.2016    4.7121    0.0000 C   0  0  0  0  0  0  0  0  0  0  0  0
    0.1153    3.8916    0.0000 C   0  0  0  0  0  0  0  0  0  0  0  0
    0.7828    3.4068    0.0000 S   0  0  0  0  0  0  0  0  0  0  0  0
    0.6965    2.5863    0.0000 C   0  0  0  0  0  0  0  0  0  0  0  0
    1.3096    2.0343    0.0000 N   0  0  0  0  0  0  0  0  0  0  0  0
    0.9741    1.2806    0.0000 N   0  0  0  0  0  0  0  0  0  0  0  0
    0.1536    1.3668    0.0000 C   0  0  0  0  0  0  0  0  0  0  0  0
   -0.3983    0.7538    0.0000 C   0  0  0  0  0  0  0  0  0  0  0  0
   -0.1435   -0.0308    0.0000 N   0  0  0  0  0  0  0  0  0  0  0  0
   -0.6283   -0.6982    0.0000 C   0  0  0  0  0  0  0  0  0  0  0  0
   -1.4533   -0.6982    0.0000 O   0  0  0  0  0  0  0  0  0  0  0  0
   -0.1435   -1.3657    0.0000 S   0  0  0  0  0  0  0  0  0  0  0  0
    0.6411   -1.1106    0.0000 C   0  0  0  0  0  0  0  0  0  0  0  0
    0.6411   -0.2858    0.0000 C   0  0  0  0  0  0  0  0  0  0  0  0
    1.3556    0.1268    0.0000 C   0  0  0  0  0  0  0  0  0  0  0  0
    2.0701   -0.2858    0.0000 C   0  0  0  0  0  0  0  0  0  0  0  0
    2.0701   -1.1106    0.0000 C   0  0  0  0  0  0  0  0  0  0  0  0
    1.3556   -1.5232    0.0000 C   0  0  0  0  0  0  0  0  0  0  0  0
   -0.0179    2.1738    0.0000 N   0  0  0  0  0  0  0  0  0  0  0  0
   -0.7716    2.5093    0.0000 C   0  0  0  0  0  0  0  0  0  0  0  0
   -0.8579    3.3297    0.0000 C   0  0  0  0  0  0  0  0  0  0  0  0
   -1.6115    3.6654    0.0000 C   0  0  0  0  0  0  0  0  0  0  0  0
   -1.6978    4.4859    0.0000 C   0  0  0  0  0  0  0  0  0  0  0  0
   -2.4513    4.8213    0.0000 C   0  0  0  0  0  0  0  0  0  0  0  0
   -2.5376    5.6418    0.0000 C   0  0  0  0  0  0  0  0  0  0  0  0
   -1.8701    6.1267    0.0000 C   0  0  0  0  0  0  0  0  0  0  0  0
   -1.1165    5.7912    0.0000 C   0  0  0  0  0  0  0  0  0  0  0  0
   -1.0303    4.9707    0.0000 C   0  0  0  0  0  0  0  0  0  0  0  0
   -0.4658    5.1971    0.0000 N   0  0  0  0  0  0  0  0  0  0  0  0
   -0.3795    6.0174    0.0000 C   0  0  0  0  0  0  0  0  0  0  0  0
   -0.9927    6.5695    0.0000 C   0  0  0  0  0  0  0  0  0  0  0  0
   -0.6571    7.3232    0.0000 C   0  0  0  0  0  0  0  0  0  0  0  0
    0.1633    7.2369    0.0000 C   0  0  0  0  0  0  0  0  0  0  0  0
    0.3349    6.4300    0.0000 C   0  0  0  0  0  0  0  0  0  0  0  0
  1  2  2  0  0  0  0
  2  3  1  0  0  0  0
  3  4  1  0  0  0  0
  4  5  1  0  0  0  0
  5  6  4  0  0  0  0
  6  7  4  0  0  0  0
  7  8  4  0  0  0  0
  8  9  1  0  0  0  0
  9 10  1  0  0  0  0
 10 11  4  0  0  0  0
 11 12  2  0  0  0  0
 11 13  4  0  0  0  0
 13 14  4  0  0  0  0
 14 15  4  0  0  0  0
 10 15  4  0  0  0  0
 15 16  4  0  0  0  0
 16 17  4  0  0  0  0
 17 18  4  0  0  0  0
 18 19  4  0  0  0  0
 14 19  4  0  0  0  0
  8 20  4  0  0  0  0
  5 20  4  0  0  0  0
 20 21  1  0  0  0  0
 21 22  1  0  0  0  0
 22 23  1  0  0  0  0
 23 24  1  0  0  0  0
 24 25  4  0  0  0  0
 25 26  4  0  0  0  0
 26 27  4  0  0  0  0
 27 28  4  0  0  0  0
 28 29  4  0  0  0  0
 24 29  4  0  0  0  0
  2 30  1  0  0  0  0
 30 31  1  0  0  0  0
 31 32  1  0  0  0  0
 32 33  1  0  0  0  0
 33 34  1  0  0  0  0
 34 35  1  0  0  0  0
 31 35  1  0  0  0  0
M  END
> <From>
www.bindingDB.org

> <BindingDB Reactant_set_id>
51327181

> <Ligand InChI>
InChI=1S/C26H29N5O2S2/c32-24(27-20-12-4-5-13-20)18-34-25-29-28-23(30(25)16-8-11-19-9-2-1-3-10-19)17-31-21-14-6-7-15-22(21)35-26(31)33/h1-3,6-7,9-10,14-15,20H,4-5,8,11-13,16-18H2,(H,27,32)

> <Ligand InChI Key>
OWBLWONOQGFMRT-UHFFFAOYSA-N

> <BindingDB MonomerID>
65520

> <BindingDB Ligand Name>
N-cyclopentyl-2-((5-((2-oxobenzo[d]thiazol-3(2H)-yl)methyl)-4-phenpropyl-4H-1,2,4-triazol-3-yl)thio)acetamide

> <Target Name>
DNA repair protein RAD51 homolog 1

> <Target Source Organism According to Curator or DataSource>
Homo sapiens

> <Ki (nM)>


> <IC50 (nM)>


> <Kd (nM)>


> <EC50 (nM)>
 25000

> <kon (M-1-s-1)>


> <koff (s-1)>


> <pH>


> <Temp C>


> <Curation/DataSource>
ChEMBL

> <Article DOI>
10.1016/j.ejmech.2019.01.008

> <BindingDB Entry DOI>
10.7270/Q26H4MZ5

> <PMID>
30660828

> <PubChem AID>


> <Patent Number>


> <Authors>
Roberti, M; Schipani, F; Bagnolini, G; Milano, D; Giacomini, E; Falchi, F; Balboni, A; Manerba, M; Farabegoli, F; De Franco, F; Robertson, J; Minucci, S; Pallavicini, I; Di Stefano, G; Girotto, S; Pellicciari, R; Cavalli, A

> <Date of publication>
3/1/2019

> <Date in BindingDB>
3/2/2021

> <Institution>
University of Bologna

> <Link to Ligand in BindingDB>
http://www.bindingdb.org/bind/chemsearch/marvin/MolStructure.jsp?monomerid=65520

> <Link to Ligand-Target Pair in BindingDB>
http://www.bindingdb.org/jsp/dbsearch/PrimarySearch_ki.jsp?energyterm=kJ/mole&tag=pol&polymerid=4676&target=DNA+repair+protein+RAD51+homolog+1&column=ki&startPg=0&Increment=50&submit=Search

> <Link to Ligand-Target Pair in BindingDB>
http://www.bindingdb.org/jsp/dbsearch/PrimarySearch_ki.jsp?energyterm=kJ/mole&tag=r21&monomerid=65520&enzyme=DNA+repair+protein+RAD51+homolog+1&column=ki&startPg=0&Increment=50&submit=Search

> <Ligand HET ID in PDB>


> <PDB ID(s) for Ligand-Target Complex>


> <PubChem CID of Ligand>
131953896

> <PubChem SID of Ligand>
350083140

> <ChEBI ID of Ligand>


> <ChEMBL ID of Ligand>


> <DrugBank ID of Ligand>


> <IUPHAR_GRAC ID of Ligand>


> <KEGG ID of Ligand>


> <ZINC ID of Ligand>
ZINC84585671

> <Number of Protein Chains in Target (bigger than 1 implies a multichain complex)>
1

> <BindingDB Target Chain Sequence>
MAMQMQLEANADTSVEEESFGPQPISRLEQCGINANDVKKLEEAGFHTVEAVAYAPKKELINIKGISEAKADKILAEAAKLVPMGFTTATEFHQRRSEIIQITTGSKELDKLLQGGIETGSITEMFGEFRTGKTQICHTLAVTCQLPIDRGGGEGKAMYIDTEGTFRPERLLAVAERYGLSGSDVLDNVAYARAFNTDHQTQLLYQASAMMVESRYALLIVDSATALYRTDYSGRGELSARQMHLARFLRMLLRLADEFGVAVVITNQVVAQVDGAAMFAADPKKPIGGNIIAHASTTRLYLRKGRGETRICKIYDSPCLPEAEAMFAINADGVGDAKD

> <PDB ID(s) of Target Chain>
1N0W,5JZC,5NP7,5NWL,8BQ2,8BR2,8BSC

> <UniProt (SwissProt) Recommended Name of Target Chain>
DNA repair protein RAD51 homolog 1

> <UniProt (SwissProt) Entry Name of Target Chain>
RAD51_HUMAN

> <UniProt (SwissProt) Primary ID of Target Chain>
Q06609

> <UniProt (SwissProt) Secondary ID(s) of Target Chain>
B0FXP0 B2R8T6 Q6FHX9 Q6ZNA8 Q9BV60

> <UniProt (SwissProt) Alternative ID(s) of Target Chain>


> <UniProt (TrEMBL) Submitted Name of Target Chain>


> <UniProt (TrEMBL) Entry Name of Target Chain>


> <UniProt (TrEMBL) Primary ID of Target Chain>


> <UniProt (TrEMBL) Secondary ID(s) of Target Chain>


> <UniProt (TrEMBL) Alternative ID(s) of Target Chain>


$$$$

  Mrv0541 01031814332D          

 34 38  0  0  0  0            999 V2000
    0.9554    5.0471    0.0000 O   0  0  0  0  0  0  0  0  0  0  0  0
    0.2019    4.7118    0.0000 C   0  0  0  0  0  0  0  0  0  0  0  0
    0.1155    3.8912    0.0000 C   0  0  0  0  0  0  0  0  0  0  0  0
    0.7830    3.4064    0.0000 S   0  0  0  0  0  0  0  0  0  0  0  0
    0.6967    2.5859    0.0000 C   0  0  0  0  0  0  0  0  0  0  0  0
    1.3097    2.0339    0.0000 N   0  0  0  0  0  0  0  0  0  0  0  0
    0.9743    1.2801    0.0000 N   0  0  0  0  0  0  0  0  0  0  0  0
    0.1539    1.3664    0.0000 C   0  0  0  0  0  0  0  0  0  0  0  0
   -0.3982    0.7534    0.0000 C   0  0  0  0  0  0  0  0  0  0  0  0
   -0.1433   -0.0313    0.0000 N   0  0  0  0  0  0  0  0  0  0  0  0
   -0.6282   -0.6987    0.0000 C   0  0  0  0  0  0  0  0  0  0  0  0
   -1.4532   -0.6987    0.0000 O   0  0  0  0  0  0  0  0  0  0  0  0
   -0.1433   -1.3662    0.0000 S   0  0  0  0  0  0  0  0  0  0  0  0
    0.6413   -1.1111    0.0000 C   0  0  0  0  0  0  0  0  0  0  0  0
    0.6413   -0.2862    0.0000 C   0  0  0  0  0  0  0  0  0  0  0  0
    1.3557    0.1264    0.0000 C   0  0  0  0  0  0  0  0  0  0  0  0
    2.0703   -0.2862    0.0000 C   0  0  0  0  0  0  0  0  0  0  0  0
    2.0703   -1.1111    0.0000 C   0  0  0  0  0  0  0  0  0  0  0  0
    1.3557   -1.5237    0.0000 C   0  0  0  0  0  0  0  0  0  0  0  0
   -0.0177    2.1734    0.0000 N   0  0  0  0  0  0  0  0  0  0  0  0
   -0.7713    2.5089    0.0000 C   0  0  0  0  0  0  0  0  0  0  0  0
   -1.4389    2.0240    0.0000 C   0  0  0  0  0  0  0  0  0  0  0  0
   -2.1925    2.3595    0.0000 C   0  0  0  0  0  0  0  0  0  0  0  0
   -2.8598    1.8746    0.0000 C   0  0  0  0  0  0  0  0  0  0  0  0
   -3.6136    2.2102    0.0000 C   0  0  0  0  0  0  0  0  0  0  0  0
   -3.6999    3.0306    0.0000 C   0  0  0  0  0  0  0  0  0  0  0  0
   -3.0323    3.5156    0.0000 C   0  0  0  0  0  0  0  0  0  0  0  0
   -2.2788    3.1800    0.0000 C   0  0  0  0  0  0  0  0  0  0  0  0
   -0.4657    5.1967    0.0000 N   0  0  0  0  0  0  0  0  0  0  0  0
   -0.3794    6.0171    0.0000 C   0  0  0  0  0  0  0  0  0  0  0  0
   -0.9924    6.5691    0.0000 C   0  0  0  0  0  0  0  0  0  0  0  0
   -0.6570    7.3228    0.0000 C   0  0  0  0  0  0  0  0  0  0  0  0
    0.1636    7.2365    0.0000 C   0  0  0  0  0  0  0  0  0  0  0  0
    0.3350    6.4296    0.0000 C   0  0  0  0  0  0  0  0  0  0  0  0
  1  2  2  0  0  0  0
  2  3  1  0  0  0  0
  3  4  1  0  0  0  0
  4  5  1  0  0  0  0
  5  6  4  0  0  0  0
  6  7  4  0  0  0  0
  7  8  4  0  0  0  0
  8  9  1  0  0  0  0
  9 10  1  0  0  0  0
 10 11  4  0  0  0  0
 11 12  2  0  0  0  0
 11 13  4  0  0  0  0
 13 14  4  0  0  0  0
 14 15  4  0  0  0  0
 10 15  4  0  0  0  0
 15 16  4  0  0  0  0
 16 17  4  0  0  0  0
 17 18  4  0  0  0  0
 18 19  4  0  0  0  0
 14 19  4  0  0  0  0
  8 20  4  0  0  0  0
  5 20  4  0  0  0  0
 20 21  1  0  0  0  0
 21 22  1  0  0  0  0
 22 23  1  0  0  0  0
 23 24  4  0  0  0  0
 24 25  4  0  0  0  0
 25 26  4  0  0  0  0
 26 27  4  0  0  0  0
 27 28  4  0  0  0  0
 23 28  4  0  0  0  0
  2 29  1  0  0  0  0
 29 30  1  0  0  0  0
 30 31  1  0  0  0  0
 31 32  1  0  0  0  0
 32 33  1  0  0  0  0
 33 34  1  0  0  0  0
 30 34  1  0  0  0  0
M  END
> <From>
www.bindingDB.org

> <BindingDB Reactant_set_id>
51327182

> <Ligand InChI>
InChI=1S/C25H27N5O2S2/c31-23(26-19-10-4-5-11-19)17-33-24-28-27-22(29(24)15-14-18-8-2-1-3-9-18)16-30-20-12-6-7-13-21(20)34-25(30)32/h1-3,6-9,12-13,19H,4-5,10-11,14-17H2,(H,26,31)

> <Ligand InChI Key>
KPRSCCWPZJDAKY-UHFFFAOYSA-N

> <BindingDB MonomerID>
65519

> <BindingDB Ligand Name>
F0665-0303::N-cyclopentyl-2-((5-((2-oxobenzo[d]thiazol-3(2H)-yl)methyl)-4-phenethyl-4H-1,2,4-triazol-3-yl)thio)acetamide

> <Target Name>
DNA repair protein RAD51 homolog 1

> <Target Source Organism According to Curator or DataSource>
Homo sapiens

> <Ki (nM)>


> <IC50 (nM)>


> <Kd (nM)>


> <EC50 (nM)>
 53000

> <kon (M-1-s-1)>


> <koff (s-1)>


> <pH>


> <Temp C>


> <Curation/DataSource>
ChEMBL

> <Article DOI>
10.1016/j.ejmech.2019.01.008

> <BindingDB Entry DOI>
10.7270/Q26H4MZ5

> <PMID>
30660828

> <PubChem AID>


> <Patent Number>


> <Authors>
Roberti, M; Schipani, F; Bagnolini, G; Milano, D; Giacomini, E; Falchi, F; Balboni, A; Manerba, M; Farabegoli, F; De Franco, F; Robertson, J; Minucci, S; Pallavicini, I; Di Stefano, G; Girotto, S; Pellicciari, R; Cavalli, A

> <Date of publication>
3/1/2019

> <Date in BindingDB>
3/2/2021

> <Institution>
University of Bologna

> <Link to Ligand in BindingDB>
http://www.bindingdb.org/bind/chemsearch/marvin/MolStructure.jsp?monomerid=65519

> <Link to Ligand-Target Pair in BindingDB>
http://www.bindingdb.org/jsp/dbsearch/PrimarySearch_ki.jsp?energyterm=kJ/mole&tag=pol&polymerid=4676&target=DNA+repair+protein+RAD51+homolog+1&column=ki&startPg=0&Increment=50&submit=Search

> <Link to Ligand-Target Pair in BindingDB>
http://www.bindingdb.org/jsp/dbsearch/PrimarySearch_ki.jsp?energyterm=kJ/mole&tag=r21&monomerid=65519&enzyme=DNA+repair+protein+RAD51+homolog+1&column=ki&startPg=0&Increment=50&submit=Search

> <Ligand HET ID in PDB>


> <PDB ID(s) for Ligand-Target Complex>


> <PubChem CID of Ligand>
18553874

> <PubChem SID of Ligand>
350083139

> <ChEBI ID of Ligand>


> <ChEMBL ID of Ligand>


> <DrugBank ID of Ligand>


> <IUPHAR_GRAC ID of Ligand>


> <KEGG ID of Ligand>


> <ZINC ID of Ligand>
ZINC21486784

> <Number of Protein Chains in Target (bigger than 1 implies a multichain complex)>
1

> <BindingDB Target Chain Sequence>
MAMQMQLEANADTSVEEESFGPQPISRLEQCGINANDVKKLEEAGFHTVEAVAYAPKKELINIKGISEAKADKILAEAAKLVPMGFTTATEFHQRRSEIIQITTGSKELDKLLQGGIETGSITEMFGEFRTGKTQICHTLAVTCQLPIDRGGGEGKAMYIDTEGTFRPERLLAVAERYGLSGSDVLDNVAYARAFNTDHQTQLLYQASAMMVESRYALLIVDSATALYRTDYSGRGELSARQMHLARFLRMLLRLADEFGVAVVITNQVVAQVDGAAMFAADPKKPIGGNIIAHASTTRLYLRKGRGETRICKIYDSPCLPEAEAMFAINADGVGDAKD

> <PDB ID(s) of Target Chain>
1N0W,5JZC,5NP7,5NWL,8BQ2,8BR2,8BSC

> <UniProt (SwissProt) Recommended Name of Target Chain>
DNA repair protein RAD51 homolog 1

> <UniProt (SwissProt) Entry Name of Target Chain>
RAD51_HUMAN

> <UniProt (SwissProt) Primary ID of Target Chain>
Q06609

> <UniProt (SwissProt) Secondary ID(s) of Target Chain>
B0FXP0 B2R8T6 Q6FHX9 Q6ZNA8 Q9BV60

> <UniProt (SwissProt) Alternative ID(s) of Target Chain>


> <UniProt (TrEMBL) Submitted Name of Target Chain>


> <UniProt (TrEMBL) Entry Name of Target Chain>


> <UniProt (TrEMBL) Primary ID of Target Chain>


> <UniProt (TrEMBL) Secondary ID(s) of Target Chain>


> <UniProt (TrEMBL) Alternative ID(s) of Target Chain>


$$$$
 
     RDKit          2D

 35 39  0  0  0  0  0  0  0  0999 V2000
    2.3057  -17.3673    0.0000 C   0  0  0  0  0  0  0  0  0  0  0  0
    2.3046  -18.1869    0.0000 C   0  0  0  0  0  0  0  0  0  0  0  0
    3.0126  -18.5958    0.0000 C   0  0  0  0  0  0  0  0  0  0  0  0
    3.0108  -16.9585    0.0000 C   0  0  0  0  0  0  0  0  0  0  0  0
    3.7194  -17.3637    0.0000 C   0  0  0  0  0  0  0  0  0  0  0  0
    3.7243  -18.1869    0.0000 C   0  0  0  0  0  0  0  0  0  0  0  0
    4.5086  -18.4367    0.0000 N   0  0  0  0  0  0  0  0  0  0  0  0
    4.9886  -17.7679    0.0000 C   0  0  0  0  0  0  0  0  0  0  0  0
    4.5008  -17.1048    0.0000 S   0  0  0  0  0  0  0  0  0  0  0  0
    5.8058  -17.7631    0.0000 O   0  0  0  0  0  0  0  0  0  0  0  0
    4.7657  -19.2124    0.0000 C   0  0  0  0  0  0  0  0  0  0  0  0
    5.5660  -19.3777    0.0000 C   0  0  0  0  0  0  0  0  0  0  0  0
    5.9019  -20.1196    0.0000 N   0  0  0  0  0  0  0  0  0  0  0  0
    6.7141  -20.0294    0.0000 C   0  0  0  0  0  0  0  0  0  0  0  0
    6.8794  -19.2291    0.0000 N   0  0  0  0  0  0  0  0  0  0  0  0
    6.1693  -18.8247    0.0000 N   0  0  0  0  0  0  0  0  0  0  0  0
    5.4976  -20.8297    0.0000 C   0  0  0  0  0  0  0  0  0  0  0  0
    5.9105  -21.5350    0.0000 C   0  0  0  0  0  0  0  0  0  0  0  0
    5.5062  -22.2451    0.0000 C   0  0  0  0  0  0  0  0  0  0  0  0
    4.6914  -22.2469    0.0000 C   0  0  0  0  0  0  0  0  0  0  0  0
    4.2872  -22.9562    0.0000 C   0  0  0  0  0  0  0  0  0  0  0  0
    4.7001  -23.6624    0.0000 C   0  0  0  0  0  0  0  0  0  0  0  0
    5.5215  -23.6548    0.0000 C   0  0  0  0  0  0  0  0  0  0  0  0
    5.9220  -22.9449    0.0000 C   0  0  0  0  0  0  0  0  0  0  0  0
    7.2645  -20.6335    0.0000 S   0  0  0  0  0  0  0  0  0  0  0  0
    8.0628  -20.4590    0.0000 C   0  0  0  0  0  0  0  0  0  0  0  0
    8.6131  -21.0631    0.0000 C   0  0  0  0  0  0  0  0  0  0  0  0
    9.4115  -20.8885    0.0000 N   0  0  0  0  0  0  0  0  0  0  0  0
    8.3651  -21.8417    0.0000 O   0  0  0  0  0  0  0  0  0  0  0  0
    9.9618  -21.4926    0.0000 C   0  0  0  0  0  0  0  0  0  0  0  0
    9.7128  -22.2698    0.0000 C   0  0  0  0  0  0  0  0  0  0  0  0
   10.2623  -22.8736    0.0000 C   0  0  0  0  0  0  0  0  0  0  0  0
   11.0616  -22.6993    0.0000 C   0  0  0  0  0  0  0  0  0  0  0  0
   11.3084  -21.9158    0.0000 C   0  0  0  0  0  0  0  0  0  0  0  0
   10.7571  -21.3154    0.0000 C   0  0  0  0  0  0  0  0  0  0  0  0
  1  2  2  0
  2  3  1  0
  3  6  2  0
  5  4  2  0
  4  1  1  0
  5  6  1  0
  6  7  1  0
  7  8  1  0
  8  9  1  0
  9  5  1  0
  8 10  2  0
  7 11  1  0
 11 12  1  0
 12 13  1  0
 13 14  1  0
 14 15  2  0
 15 16  1  0
 16 12  2  0
 13 17  1  0
 17 18  1  0
 18 19  1  0
 19 20  2  0
 20 21  1  0
 21 22  2  0
 22 23  1  0
 23 24  2  0
 24 19  1  0
 14 25  1  0
 25 26  1  0
 26 27  1  0
 27 28  1  0
 27 29  2  0
 28 30  1  0
 30 31  2  0
 31 32  1  0
 32 33  2  0
 33 34  1  0
 34 35  2  0
 35 30  1  0
M  END
> <From>
www.bindingDB.org

> <BindingDB Reactant_set_id>
51327183

> <Ligand InChI>
InChI=1S/C26H23N5O2S2/c32-24(27-20-11-5-2-6-12-20)18-34-25-29-28-23(30(25)16-15-19-9-3-1-4-10-19)17-31-21-13-7-8-14-22(21)35-26(31)33/h1-14H,15-18H2,(H,27,32)

> <Ligand InChI Key>
KSIYITLCWSQUKV-UHFFFAOYSA-N

> <BindingDB MonomerID>
50536928

> <BindingDB Ligand Name>
CHEMBL4553930

> <Target Name>
DNA repair protein RAD51 homolog 1

> <Target Source Organism According to Curator or DataSource>
Homo sapiens

> <Ki (nM)>


> <IC50 (nM)>


> <Kd (nM)>


> <EC50 (nM)>
 95000

> <kon (M-1-s-1)>


> <koff (s-1)>


> <pH>


> <Temp C>


> <Curation/DataSource>
ChEMBL

> <Article DOI>
10.1016/j.ejmech.2019.01.008

> <BindingDB Entry DOI>
10.7270/Q26H4MZ5

> <PMID>
30660828

> <PubChem AID>


> <Patent Number>


> <Authors>
Roberti, M; Schipani, F; Bagnolini, G; Milano, D; Giacomini, E; Falchi, F; Balboni, A; Manerba, M; Farabegoli, F; De Franco, F; Robertson, J; Minucci, S; Pallavicini, I; Di Stefano, G; Girotto, S; Pellicciari, R; Cavalli, A

> <Date of publication>
3/1/2019

> <Date in BindingDB>
3/2/2021

> <Institution>
University of Bologna

> <Link to Ligand in BindingDB>
http://www.bindingdb.org/bind/chemsearch/marvin/MolStructure.jsp?monomerid=50536928

> <Link to Ligand-Target Pair in BindingDB>
http://www.bindingdb.org/jsp/dbsearch/PrimarySearch_ki.jsp?energyterm=kJ/mole&tag=pol&polymerid=4676&target=DNA+repair+protein+RAD51+homolog+1&column=ki&startPg=0&Increment=50&submit=Search

> <Link to Ligand-Target Pair in BindingDB>
http://www.bindingdb.org/jsp/dbsearch/PrimarySearch_ki.jsp?energyterm=kJ/mole&tag=r21&monomerid=50536928&enzyme=DNA+repair+protein+RAD51+homolog+1&column=ki&startPg=0&Increment=50&submit=Search

> <Ligand HET ID in PDB>


> <PDB ID(s) for Ligand-Target Complex>


> <PubChem CID of Ligand>
41026155

> <PubChem SID of Ligand>
440827752

> <ChEBI ID of Ligand>


> <ChEMBL ID of Ligand>


> <DrugBank ID of Ligand>


> <IUPHAR_GRAC ID of Ligand>


> <KEGG ID of Ligand>


> <ZINC ID of Ligand>


> <Number of Protein Chains in Target (bigger than 1 implies a multichain complex)>
1

> <BindingDB Target Chain Sequence>
MAMQMQLEANADTSVEEESFGPQPISRLEQCGINANDVKKLEEAGFHTVEAVAYAPKKELINIKGISEAKADKILAEAAKLVPMGFTTATEFHQRRSEIIQITTGSKELDKLLQGGIETGSITEMFGEFRTGKTQICHTLAVTCQLPIDRGGGEGKAMYIDTEGTFRPERLLAVAERYGLSGSDVLDNVAYARAFNTDHQTQLLYQASAMMVESRYALLIVDSATALYRTDYSGRGELSARQMHLARFLRMLLRLADEFGVAVVITNQVVAQVDGAAMFAADPKKPIGGNIIAHASTTRLYLRKGRGETRICKIYDSPCLPEAEAMFAINADGVGDAKD

> <PDB ID(s) of Target Chain>
1N0W,5JZC,5NP7,5NWL,8BQ2,8BR2,8BSC

> <UniProt (SwissProt) Recommended Name of Target Chain>
DNA repair protein RAD51 homolog 1

> <UniProt (SwissProt) Entry Name of Target Chain>
RAD51_HUMAN

> <UniProt (SwissProt) Primary ID of Target Chain>
Q06609

> <UniProt (SwissProt) Secondary ID(s) of Target Chain>
B0FXP0 B2R8T6 Q6FHX9 Q6ZNA8 Q9BV60

> <UniProt (SwissProt) Alternative ID(s) of Target Chain>


> <UniProt (TrEMBL) Submitted Name of Target Chain>


> <UniProt (TrEMBL) Entry Name of Target Chain>


> <UniProt (TrEMBL) Primary ID of Target Chain>


> <UniProt (TrEMBL) Secondary ID(s) of Target Chain>


> <UniProt (TrEMBL) Alternative ID(s) of Target Chain>


$$$$
 
     RDKit          2D

 35 39  0  0  0  0  0  0  0  0999 V2000
   22.5539   -1.9686    0.0000 C   0  0  0  0  0  0  0  0  0  0  0  0
   22.5527   -2.7882    0.0000 C   0  0  0  0  0  0  0  0  0  0  0  0
   23.2608   -3.1972    0.0000 C   0  0  0  0  0  0  0  0  0  0  0  0
   23.2590   -1.5598    0.0000 C   0  0  0  0  0  0  0  0  0  0  0  0
   23.9676   -1.9651    0.0000 C   0  0  0  0  0  0  0  0  0  0  0  0
   23.9724   -2.7882    0.0000 C   0  0  0  0  0  0  0  0  0  0  0  0
   24.7568   -3.0380    0.0000 N   0  0  0  0  0  0  0  0  0  0  0  0
   25.2368   -2.3692    0.0000 C   0  0  0  0  0  0  0  0  0  0  0  0
   24.7490   -1.7062    0.0000 S   0  0  0  0  0  0  0  0  0  0  0  0
   26.0540   -2.3644    0.0000 O   0  0  0  0  0  0  0  0  0  0  0  0
   25.0139   -3.8137    0.0000 C   0  0  0  0  0  0  0  0  0  0  0  0
   25.8142   -3.9790    0.0000 C   0  0  0  0  0  0  0  0  0  0  0  0
   26.1501   -4.7209    0.0000 N   0  0  0  0  0  0  0  0  0  0  0  0
   26.9623   -4.6307    0.0000 C   0  0  0  0  0  0  0  0  0  0  0  0
   27.1276   -3.8304    0.0000 N   0  0  0  0  0  0  0  0  0  0  0  0
   26.4174   -3.4260    0.0000 N   0  0  0  0  0  0  0  0  0  0  0  0
   25.7458   -5.4311    0.0000 C   0  0  0  0  0  0  0  0  0  0  0  0
   26.1587   -6.1363    0.0000 C   0  0  0  0  0  0  0  0  0  0  0  0
   25.7544   -6.8464    0.0000 C   0  0  0  0  0  0  0  0  0  0  0  0
   24.9396   -6.8482    0.0000 C   0  0  0  0  0  0  0  0  0  0  0  0
   24.5354   -7.5575    0.0000 C   0  0  0  0  0  0  0  0  0  0  0  0
   24.9483   -8.2637    0.0000 C   0  0  0  0  0  0  0  0  0  0  0  0
   25.7697   -8.2561    0.0000 C   0  0  0  0  0  0  0  0  0  0  0  0
   26.1702   -7.5462    0.0000 C   0  0  0  0  0  0  0  0  0  0  0  0
   27.5126   -5.2348    0.0000 S   0  0  0  0  0  0  0  0  0  0  0  0
   28.3110   -5.0603    0.0000 C   0  0  0  0  0  0  0  0  0  0  0  0
   28.8613   -5.6644    0.0000 C   0  0  0  0  0  0  0  0  0  0  0  0
   29.6596   -5.4898    0.0000 N   0  0  0  0  0  0  0  0  0  0  0  0
   28.6133   -6.4430    0.0000 O   0  0  0  0  0  0  0  0  0  0  0  0
   30.2100   -6.0939    0.0000 C   0  0  0  0  0  0  0  0  0  0  0  0
   30.0476   -6.8916    0.0000 C   0  0  0  0  0  0  0  0  0  0  0  0
   30.7577   -7.2961    0.0000 C   0  0  0  0  0  0  0  0  0  0  0  0
   31.3619   -6.7457    0.0000 C   0  0  0  0  0  0  0  0  0  0  0  0
   31.0250   -6.0012    0.0000 C   0  0  0  0  0  0  0  0  0  0  0  0
   24.5283   -6.1421    0.0000 C   0  0  0  0  0  0  0  0  0  0  0  0
  1  2  2  0
  2  3  1  0
  3  6  2  0
  5  4  2  0
  4  1  1  0
  5  6  1  0
  6  7  1  0
  7  8  1  0
  8  9  1  0
  9  5  1  0
  8 10  2  0
  7 11  1  0
 11 12  1  0
 12 13  1  0
 13 14  1  0
 14 15  2  0
 15 16  1  0
 16 12  2  0
 13 17  1  0
 17 18  1  0
 18 19  1  0
 19 20  2  0
 20 21  1  0
 21 22  2  0
 22 23  1  0
 23 24  2  0
 24 19  1  0
 14 25  1  0
 25 26  1  0
 26 27  1  0
 27 28  1  0
 27 29  2  0
 28 30  1  0
 30 31  1  0
 31 32  1  0
 32 33  1  0
 33 34  1  0
 34 30  1  0
 20 35  1  0
M  END
> <From>
www.bindingDB.org

> <BindingDB Reactant_set_id>
51327184

> <Ligand InChI>
InChI=1S/C26H29N5O2S2/c1-18-8-2-3-9-19(18)14-15-30-23(16-31-21-12-6-7-13-22(21)35-26(31)33)28-29-25(30)34-17-24(32)27-20-10-4-5-11-20/h2-3,6-9,12-13,20H,4-5,10-11,14-17H2,1H3,(H,27,32)

> <Ligand InChI Key>
NFUNNRIEPKADOC-UHFFFAOYSA-N

> <BindingDB MonomerID>
50536929

> <BindingDB Ligand Name>
CHEMBL4551898

> <Target Name>
DNA repair protein RAD51 homolog 1

> <Target Source Organism According to Curator or DataSource>
Homo sapiens

> <Ki (nM)>


> <IC50 (nM)>


> <Kd (nM)>


> <EC50 (nM)>
 100000

> <kon (M-1-s-1)>


> <koff (s-1)>


> <pH>


> <Temp C>


> <Curation/DataSource>
ChEMBL

> <Article DOI>
10.1016/j.ejmech.2019.01.008

> <BindingDB Entry DOI>
10.7270/Q26H4MZ5

> <PMID>
30660828

> <PubChem AID>


> <Patent Number>


> <Authors>
Roberti, M; Schipani, F; Bagnolini, G; Milano, D; Giacomini, E; Falchi, F; Balboni, A; Manerba, M; Farabegoli, F; De Franco, F; Robertson, J; Minucci, S; Pallavicini, I; Di Stefano, G; Girotto, S; Pellicciari, R; Cavalli, A

> <Date of publication>
3/1/2019

> <Date in BindingDB>
3/2/2021

> <Institution>
University of Bologna

> <Link to Ligand in BindingDB>
http://www.bindingdb.org/bind/chemsearch/marvin/MolStructure.jsp?monomerid=50536929

> <Link to Ligand-Target Pair in BindingDB>
http://www.bindingdb.org/jsp/dbsearch/PrimarySearch_ki.jsp?energyterm=kJ/mole&tag=pol&polymerid=4676&target=DNA+repair+protein+RAD51+homolog+1&column=ki&startPg=0&Increment=50&submit=Search

> <Link to Ligand-Target Pair in BindingDB>
http://www.bindingdb.org/jsp/dbsearch/PrimarySearch_ki.jsp?energyterm=kJ/mole&tag=r21&monomerid=50536929&enzyme=DNA+repair+protein+RAD51+homolog+1&column=ki&startPg=0&Increment=50&submit=Search

> <Ligand HET ID in PDB>


> <PDB ID(s) for Ligand-Target Complex>


> <PubChem CID of Ligand>
155555558

> <PubChem SID of Ligand>
440827753

> <ChEBI ID of Ligand>


> <ChEMBL ID of Ligand>


> <DrugBank ID of Ligand>


> <IUPHAR_GRAC ID of Ligand>


> <KEGG ID of Ligand>


> <ZINC ID of Ligand>


> <Number of Protein Chains in Target (bigger than 1 implies a multichain complex)>
1

> <BindingDB Target Chain Sequence>
MAMQMQLEANADTSVEEESFGPQPISRLEQCGINANDVKKLEEAGFHTVEAVAYAPKKELINIKGISEAKADKILAEAAKLVPMGFTTATEFHQRRSEIIQITTGSKELDKLLQGGIETGSITEMFGEFRTGKTQICHTLAVTCQLPIDRGGGEGKAMYIDTEGTFRPERLLAVAERYGLSGSDVLDNVAYARAFNTDHQTQLLYQASAMMVESRYALLIVDSATALYRTDYSGRGELSARQMHLARFLRMLLRLADEFGVAVVITNQVVAQVDGAAMFAADPKKPIGGNIIAHASTTRLYLRKGRGETRICKIYDSPCLPEAEAMFAINADGVGDAKD

> <PDB ID(s) of Target Chain>
1N0W,5JZC,5NP7,5NWL,8BQ2,8BR2,8BSC

> <UniProt (SwissProt) Recommended Name of Target Chain>
DNA repair protein RAD51 homolog 1

> <UniProt (SwissProt) Entry Name of Target Chain>
RAD51_HUMAN

> <UniProt (SwissProt) Primary ID of Target Chain>
Q06609

> <UniProt (SwissProt) Secondary ID(s) of Target Chain>
B0FXP0 B2R8T6 Q6FHX9 Q6ZNA8 Q9BV60

> <UniProt (SwissProt) Alternative ID(s) of Target Chain>


> <UniProt (TrEMBL) Submitted Name of Target Chain>


> <UniProt (TrEMBL) Entry Name of Target Chain>


> <UniProt (TrEMBL) Primary ID of Target Chain>


> <UniProt (TrEMBL) Secondary ID(s) of Target Chain>


> <UniProt (TrEMBL) Alternative ID(s) of Target Chain>


$$$$
 
     RDKit          2D

 34 38  0  0  0  0  0  0  0  0999 V2000
    2.3759   -2.0388    0.0000 C   0  0  0  0  0  0  0  0  0  0  0  0
    2.3747   -2.8583    0.0000 C   0  0  0  0  0  0  0  0  0  0  0  0
    3.0828   -3.2673    0.0000 C   0  0  0  0  0  0  0  0  0  0  0  0
    3.0810   -1.6300    0.0000 C   0  0  0  0  0  0  0  0  0  0  0  0
    3.7896   -2.0352    0.0000 C   0  0  0  0  0  0  0  0  0  0  0  0
    3.7944   -2.8584    0.0000 C   0  0  0  0  0  0  0  0  0  0  0  0
    4.5788   -3.1082    0.0000 N   0  0  0  0  0  0  0  0  0  0  0  0
    5.0588   -2.4394    0.0000 C   0  0  0  0  0  0  0  0  0  0  0  0
    4.5710   -1.7763    0.0000 S   0  0  0  0  0  0  0  0  0  0  0  0
    5.8760   -2.4345    0.0000 O   0  0  0  0  0  0  0  0  0  0  0  0
    4.8359   -3.8839    0.0000 C   0  0  0  0  0  0  0  0  0  0  0  0
    5.6362   -4.0492    0.0000 C   0  0  0  0  0  0  0  0  0  0  0  0
    5.9721   -4.7910    0.0000 N   0  0  0  0  0  0  0  0  0  0  0  0
    6.7843   -4.7009    0.0000 C   0  0  0  0  0  0  0  0  0  0  0  0
    6.9495   -3.9005    0.0000 N   0  0  0  0  0  0  0  0  0  0  0  0
    6.2394   -3.4962    0.0000 N   0  0  0  0  0  0  0  0  0  0  0  0
    5.5678   -5.5012    0.0000 C   0  0  0  0  0  0  0  0  0  0  0  0
    5.9806   -6.2064    0.0000 C   0  0  0  0  0  0  0  0  0  0  0  0
    5.5763   -6.9166    0.0000 C   0  0  0  0  0  0  0  0  0  0  0  0
    5.9922   -7.6164    0.0000 C   0  0  0  0  0  0  0  0  0  0  0  0
    7.3346   -5.3050    0.0000 S   0  0  0  0  0  0  0  0  0  0  0  0
    8.1330   -5.1304    0.0000 C   0  0  0  0  0  0  0  0  0  0  0  0
    8.6833   -5.7345    0.0000 C   0  0  0  0  0  0  0  0  0  0  0  0
    9.4816   -5.5600    0.0000 N   0  0  0  0  0  0  0  0  0  0  0  0
    8.4353   -6.5132    0.0000 O   0  0  0  0  0  0  0  0  0  0  0  0
   10.0320   -6.1641    0.0000 C   0  0  0  0  0  0  0  0  0  0  0  0
    5.5925   -8.3248    0.0000 C   0  0  0  0  0  0  0  0  0  0  0  0
    6.0076   -9.0241    0.0000 C   0  0  0  0  0  0  0  0  0  0  0  0
    6.8224   -9.0143    0.0000 C   0  0  0  0  0  0  0  0  0  0  0  0
    7.2203   -8.2993    0.0000 C   0  0  0  0  0  0  0  0  0  0  0  0
    6.8028   -7.6030    0.0000 C   0  0  0  0  0  0  0  0  0  0  0  0
    9.9910   -6.9779    0.0000 C   0  0  0  0  0  0  0  0  0  0  0  0
   10.8073   -7.0159    0.0000 C   0  0  0  0  0  0  0  0  0  0  0  0
   10.8453   -6.1996    0.0000 C   0  0  0  0  0  0  0  0  0  0  0  0
  1  2  2  0
  2  3  1  0
  3  6  2  0
  5  4  2  0
  4  1  1  0
  5  6  1  0
  6  7  1  0
  7  8  1  0
  8  9  1  0
  9  5  1  0
  8 10  2  0
  7 11  1  0
 11 12  1  0
 12 13  1  0
 13 14  1  0
 14 15  2  0
 15 16  1  0
 16 12  2  0
 13 17  1  0
 17 18  1  0
 18 19  1  0
 20 19  1  0
 14 21  1  0
 21 22  1  0
 22 23  1  0
 23 24  1  0
 23 25  2  0
 24 26  1  0
 20 27  2  0
 27 28  1  0
 28 29  2  0
 29 30  1  0
 30 31  2  0
 31 20  1  0
 26 32  1  0
 32 33  1  0
 33 34  1  0
 34 26  1  0
M  END
> <From>
www.bindingDB.org

> <BindingDB Reactant_set_id>
51327185

> <Ligand InChI>
InChI=1S/C25H27N5O2S2/c31-23(26-19-11-6-12-19)17-33-24-28-27-22(29(24)15-7-10-18-8-2-1-3-9-18)16-30-20-13-4-5-14-21(20)34-25(30)32/h1-5,8-9,13-14,19H,6-7,10-12,15-17H2,(H,26,31)

> <Ligand InChI Key>
UOKRJXVTLJCSOQ-UHFFFAOYSA-N

> <BindingDB MonomerID>
50536930

> <BindingDB Ligand Name>
CHEMBL4540385

> <Target Name>
DNA repair protein RAD51 homolog 1

> <Target Source Organism According to Curator or DataSource>
Homo sapiens

> <Ki (nM)>


> <IC50 (nM)>


> <Kd (nM)>


> <EC50 (nM)>
 42000

> <kon (M-1-s-1)>


> <koff (s-1)>


> <pH>


> <Temp C>


> <Curation/DataSource>
ChEMBL

> <Article DOI>
10.1016/j.ejmech.2019.01.008

> <BindingDB Entry DOI>
10.7270/Q26H4MZ5

> <PMID>
30660828

> <PubChem AID>


> <Patent Number>


> <Authors>
Roberti, M; Schipani, F; Bagnolini, G; Milano, D; Giacomini, E; Falchi, F; Balboni, A; Manerba, M; Farabegoli, F; De Franco, F; Robertson, J; Minucci, S; Pallavicini, I; Di Stefano, G; Girotto, S; Pellicciari, R; Cavalli, A

> <Date of publication>
3/1/2019

> <Date in BindingDB>
3/2/2021

> <Institution>
University of Bologna

> <Link to Ligand in BindingDB>
http://www.bindingdb.org/bind/chemsearch/marvin/MolStructure.jsp?monomerid=50536930

> <Link to Ligand-Target Pair in BindingDB>
http://www.bindingdb.org/jsp/dbsearch/PrimarySearch_ki.jsp?energyterm=kJ/mole&tag=pol&polymerid=4676&target=DNA+repair+protein+RAD51+homolog+1&column=ki&startPg=0&Increment=50&submit=Search

> <Link to Ligand-Target Pair in BindingDB>
http://www.bindingdb.org/jsp/dbsearch/PrimarySearch_ki.jsp?energyterm=kJ/mole&tag=r21&monomerid=50536930&enzyme=DNA+repair+protein+RAD51+homolog+1&column=ki&startPg=0&Increment=50&submit=Search

> <Ligand HET ID in PDB>


> <PDB ID(s) for Ligand-Target Complex>


> <PubChem CID of Ligand>
155549847

> <PubChem SID of Ligand>
440827754

> <ChEBI ID of Ligand>


> <ChEMBL ID of Ligand>


> <DrugBank ID of Ligand>


> <IUPHAR_GRAC ID of Ligand>


> <KEGG ID of Ligand>


> <ZINC ID of Ligand>


> <Number of Protein Chains in Target (bigger than 1 implies a multichain complex)>
1

> <BindingDB Target Chain Sequence>
MAMQMQLEANADTSVEEESFGPQPISRLEQCGINANDVKKLEEAGFHTVEAVAYAPKKELINIKGISEAKADKILAEAAKLVPMGFTTATEFHQRRSEIIQITTGSKELDKLLQGGIETGSITEMFGEFRTGKTQICHTLAVTCQLPIDRGGGEGKAMYIDTEGTFRPERLLAVAERYGLSGSDVLDNVAYARAFNTDHQTQLLYQASAMMVESRYALLIVDSATALYRTDYSGRGELSARQMHLARFLRMLLRLADEFGVAVVITNQVVAQVDGAAMFAADPKKPIGGNIIAHASTTRLYLRKGRGETRICKIYDSPCLPEAEAMFAINADGVGDAKD

> <PDB ID(s) of Target Chain>
1N0W,5JZC,5NP7,5NWL,8BQ2,8BR2,8BSC

> <UniProt (SwissProt) Recommended Name of Target Chain>
DNA repair protein RAD51 homolog 1

> <UniProt (SwissProt) Entry Name of Target Chain>
RAD51_HUMAN

> <UniProt (SwissProt) Primary ID of Target Chain>
Q06609

> <UniProt (SwissProt) Secondary ID(s) of Target Chain>
B0FXP0 B2R8T6 Q6FHX9 Q6ZNA8 Q9BV60

> <UniProt (SwissProt) Alternative ID(s) of Target Chain>


> <UniProt (TrEMBL) Submitted Name of Target Chain>


> <UniProt (TrEMBL) Entry Name of Target Chain>


> <UniProt (TrEMBL) Primary ID of Target Chain>


> <UniProt (TrEMBL) Secondary ID(s) of Target Chain>


> <UniProt (TrEMBL) Alternative ID(s) of Target Chain>


$$$$
 
     RDKit          2D

 33 37  0  0  0  0  0  0  0  0999 V2000
   29.6079  -26.0694    0.0000 C   0  0  0  0  0  0  0  0  0  0  0  0
   29.6067  -26.8976    0.0000 C   0  0  0  0  0  0  0  0  0  0  0  0
   30.3187  -27.3088    0.0000 C   0  0  0  0  0  0  0  0  0  0  0  0
   30.3169  -25.6541    0.0000 C   0  0  0  0  0  0  0  0  0  0  0  0
   31.0335  -26.0658    0.0000 C   0  0  0  0  0  0  0  0  0  0  0  0
   31.0324  -26.8951    0.0000 C   0  0  0  0  0  0  0  0  0  0  0  0
   31.7466  -27.3063    0.0000 N   0  0  0  0  0  0  0  0  0  0  0  0
   32.4665  -26.8971    0.0000 C   0  0  0  0  0  0  0  0  0  0  0  0
   32.4676  -26.0678    0.0000 C   0  0  0  0  0  0  0  0  0  0  0  0
   31.7489  -25.6478    0.0000 C   0  0  0  0  0  0  0  0  0  0  0  0
   31.7494  -24.8261    0.0000 C   0  0  0  0  0  0  0  0  0  0  0  0
   32.4668  -24.4159    0.0000 C   0  0  0  0  0  0  0  0  0  0  0  0
   32.4671  -23.5909    0.0000 C   0  0  0  0  0  0  0  0  0  0  0  0
   31.7509  -23.1750    0.0000 C   0  0  0  0  0  0  0  0  0  0  0  0
   31.0328  -23.5944    0.0000 C   0  0  0  0  0  0  0  0  0  0  0  0
   31.0359  -24.4181    0.0000 C   0  0  0  0  0  0  0  0  0  0  0  0
   33.1823  -25.6535    0.0000 C   0  0  0  0  0  0  0  0  0  0  0  0
   33.9363  -25.9937    0.0000 C   0  0  0  0  0  0  0  0  0  0  0  0
   34.4875  -25.3802    0.0000 C   0  0  0  0  0  0  0  0  0  0  0  0
   34.0784  -24.6634    0.0000 N   0  0  0  0  0  0  0  0  0  0  0  0
   33.2702  -24.8324    0.0000 N   0  0  0  0  0  0  0  0  0  0  0  0
   33.1811  -27.3100    0.0000 O   0  0  0  0  0  0  0  0  0  0  0  0
   34.4144  -23.9094    0.0000 C   0  0  0  0  0  0  0  0  0  0  0  0
   35.2359  -23.8255    0.0000 C   0  0  0  0  0  0  0  0  0  0  0  0
   33.9330  -23.2395    0.0000 O   0  0  0  0  0  0  0  0  0  0  0  0
   35.3112  -25.3764    0.0000 C   0  0  0  0  0  0  0  0  0  0  0  0
   28.8953  -25.6603    0.0000 Cl  0  0  0  0  0  0  0  0  0  0  0  0
   35.7245  -26.0901    0.0000 C   0  0  0  0  0  0  0  0  0  0  0  0
   36.5473  -26.0867    0.0000 C   0  0  0  0  0  0  0  0  0  0  0  0
   36.9567  -25.3709    0.0000 C   0  0  0  0  0  0  0  0  0  0  0  0
   36.5371  -24.6572    0.0000 C   0  0  0  0  0  0  0  0  0  0  0  0
   35.7156  -24.6641    0.0000 C   0  0  0  0  0  0  0  0  0  0  0  0
   37.7784  -25.3661    0.0000 Cl  0  0  0  0  0  0  0  0  0  0  0  0
  1  2  2  0
  2  3  1  0
  3  6  2  0
  5  4  2  0
  4  1  1  0
  5  6  1  0
  5 10  1  0
  6  7  1  0
  7  8  1  0
  8  9  1  0
  9 10  2  0
 11 12  2  0
 12 13  1  0
 13 14  2  0
 14 15  1  0
 15 16  2  0
 16 11  1  0
 10 11  1  0
 17 18  1  0
 18 19  1  0
 19 20  1  0
 20 21  1  0
 21 17  2  0
  9 17  1  0
  8 22  2  0
 20 23  1  0
 23 24  1  0
 23 25  2  0
 19 26  1  0
  1 27  1  0
 26 28  2  0
 28 29  1  0
 29 30  2  0
 30 31  1  0
 31 32  2  0
 32 26  1  0
 30 33  1  0
M  END
> <From>
www.bindingDB.org

> <BindingDB Reactant_set_id>
51293287

> <Ligand InChI>
InChI=1S/C26H19Cl2N3O2/c1-15(32)31-23(16-7-9-18(27)10-8-16)14-22(30-31)25-24(17-5-3-2-4-6-17)20-13-19(28)11-12-21(20)29-26(25)33/h2-13,23H,14H2,1H3,(H,29,33)

> <Ligand InChI Key>
AZSNTCULVFHSIG-UHFFFAOYSA-N

> <BindingDB MonomerID>
50527105

> <BindingDB Ligand Name>
CHEMBL4574296

> <Target Name>
DNA repair protein RAD51 homolog 1

> <Target Source Organism According to Curator or DataSource>
Homo sapiens

> <Ki (nM)>


> <IC50 (nM)>


> <Kd (nM)>


> <EC50 (nM)>
 10000

> <kon (M-1-s-1)>


> <koff (s-1)>


> <pH>


> <Temp C>


> <Curation/DataSource>
ChEMBL

> <Article DOI>
10.1021/acs.jmedchem.9b01526

> <BindingDB Entry DOI>
10.7270/Q2SF30MF

> <PMID>
32037829

> <PubChem AID>


> <Patent Number>


> <Authors>
Bagnolini, G; Milano, D; Manerba, M; Schipani, F; Ortega, JA; Gioia, D; Falchi, F; Balboni, A; Farabegoli, F; De Franco, F; Robertson, J; Pellicciari, R; Pallavicini, I; Peri, S; Minucci, S; Girotto, S; Di Stefano, G; Roberti, M; Cavalli, A

> <Date of publication>
3/12/2020

> <Date in BindingDB>
2/25/2021

> <Institution>
Istituto Italiano di Tecnologia

> <Link to Ligand in BindingDB>
http://www.bindingdb.org/bind/chemsearch/marvin/MolStructure.jsp?monomerid=50527105

> <Link to Ligand-Target Pair in BindingDB>
http://www.bindingdb.org/jsp/dbsearch/PrimarySearch_ki.jsp?energyterm=kJ/mole&tag=pol&polymerid=4676&target=DNA+repair+protein+RAD51+homolog+1&column=ki&startPg=0&Increment=50&submit=Search

> <Link to Ligand-Target Pair in BindingDB>
http://www.bindingdb.org/jsp/dbsearch/PrimarySearch_ki.jsp?energyterm=kJ/mole&tag=r21&monomerid=50527105&enzyme=DNA+repair+protein+RAD51+homolog+1&column=ki&startPg=0&Increment=50&submit=Search

> <Ligand HET ID in PDB>


> <PDB ID(s) for Ligand-Target Complex>


> <PubChem CID of Ligand>
4245983

> <PubChem SID of Ligand>
440735687

> <ChEBI ID of Ligand>


> <ChEMBL ID of Ligand>


> <DrugBank ID of Ligand>


> <IUPHAR_GRAC ID of Ligand>


> <KEGG ID of Ligand>


> <ZINC ID of Ligand>


> <Number of Protein Chains in Target (bigger than 1 implies a multichain complex)>
1

> <BindingDB Target Chain Sequence>
MAMQMQLEANADTSVEEESFGPQPISRLEQCGINANDVKKLEEAGFHTVEAVAYAPKKELINIKGISEAKADKILAEAAKLVPMGFTTATEFHQRRSEIIQITTGSKELDKLLQGGIETGSITEMFGEFRTGKTQICHTLAVTCQLPIDRGGGEGKAMYIDTEGTFRPERLLAVAERYGLSGSDVLDNVAYARAFNTDHQTQLLYQASAMMVESRYALLIVDSATALYRTDYSGRGELSARQMHLARFLRMLLRLADEFGVAVVITNQVVAQVDGAAMFAADPKKPIGGNIIAHASTTRLYLRKGRGETRICKIYDSPCLPEAEAMFAINADGVGDAKD

> <PDB ID(s) of Target Chain>
1N0W,5JZC,5NP7,5NWL,8BQ2,8BR2,8BSC

> <UniProt (SwissProt) Recommended Name of Target Chain>
DNA repair protein RAD51 homolog 1

> <UniProt (SwissProt) Entry Name of Target Chain>
RAD51_HUMAN

> <UniProt (SwissProt) Primary ID of Target Chain>
Q06609

> <UniProt (SwissProt) Secondary ID(s) of Target Chain>
B0FXP0 B2R8T6 Q6FHX9 Q6ZNA8 Q9BV60

> <UniProt (SwissProt) Alternative ID(s) of Target Chain>


> <UniProt (TrEMBL) Submitted Name of Target Chain>


> <UniProt (TrEMBL) Entry Name of Target Chain>


> <UniProt (TrEMBL) Primary ID of Target Chain>


> <UniProt (TrEMBL) Secondary ID(s) of Target Chain>


> <UniProt (TrEMBL) Alternative ID(s) of Target Chain>


$$$$
 
     RDKit          2D

 37 42  0  0  0  0  0  0  0  0999 V2000
    1.8121  -28.0325    0.0000 C   0  0  0  0  0  0  0  0  0  0  0  0
    1.8109  -28.8607    0.0000 C   0  0  0  0  0  0  0  0  0  0  0  0
    2.5229  -29.2718    0.0000 C   0  0  0  0  0  0  0  0  0  0  0  0
    2.5211  -27.6172    0.0000 C   0  0  0  0  0  0  0  0  0  0  0  0
    3.2377  -28.0288    0.0000 C   0  0  0  0  0  0  0  0  0  0  0  0
    3.2366  -28.8582    0.0000 C   0  0  0  0  0  0  0  0  0  0  0  0
    3.9508  -29.2694    0.0000 N   0  0  0  0  0  0  0  0  0  0  0  0
    4.6707  -28.8602    0.0000 C   0  0  0  0  0  0  0  0  0  0  0  0
    4.6719  -28.0309    0.0000 C   0  0  0  0  0  0  0  0  0  0  0  0
    3.9531  -27.6109    0.0000 C   0  0  0  0  0  0  0  0  0  0  0  0
    3.9536  -26.7892    0.0000 C   0  0  0  0  0  0  0  0  0  0  0  0
    4.6710  -26.3789    0.0000 C   0  0  0  0  0  0  0  0  0  0  0  0
    4.6713  -25.5539    0.0000 C   0  0  0  0  0  0  0  0  0  0  0  0
    3.9551  -25.1381    0.0000 C   0  0  0  0  0  0  0  0  0  0  0  0
    3.2370  -25.5574    0.0000 C   0  0  0  0  0  0  0  0  0  0  0  0
    3.2401  -26.3811    0.0000 C   0  0  0  0  0  0  0  0  0  0  0  0
    5.3865  -27.6166    0.0000 C   0  0  0  0  0  0  0  0  0  0  0  0
    6.1405  -27.9567    0.0000 C   0  0  0  0  0  0  0  0  0  0  0  0
    6.6918  -27.3433    0.0000 C   0  0  0  0  0  0  0  0  0  0  0  0
    6.2827  -26.6265    0.0000 N   0  0  0  0  0  0  0  0  0  0  0  0
    5.4744  -26.7955    0.0000 N   0  0  0  0  0  0  0  0  0  0  0  0
    5.3853  -29.2729    0.0000 O   0  0  0  0  0  0  0  0  0  0  0  0
    6.6186  -25.8725    0.0000 C   0  0  0  0  0  0  0  0  0  0  0  0
    7.4401  -25.7885    0.0000 C   0  0  0  0  0  0  0  0  0  0  0  0
    6.1372  -25.2025    0.0000 O   0  0  0  0  0  0  0  0  0  0  0  0
    7.5154  -27.3395    0.0000 C   0  0  0  0  0  0  0  0  0  0  0  0
    7.9308  -28.0537    0.0000 C   0  0  0  0  0  0  0  0  0  0  0  0
    8.7434  -26.6196    0.0000 C   0  0  0  0  0  0  0  0  0  0  0  0
    7.9220  -26.6266    0.0000 C   0  0  0  0  0  0  0  0  0  0  0  0
    1.0995  -27.6233    0.0000 Cl  0  0  0  0  0  0  0  0  0  0  0  0
    9.1609  -27.3339    0.0000 C   0  0  0  0  0  0  0  0  0  0  0  0
    8.7556  -28.0494    0.0000 C   0  0  0  0  0  0  0  0  0  0  0  0
    9.3107  -28.6559    0.0000 C   0  0  0  0  0  0  0  0  0  0  0  0
   10.0592  -28.3154    0.0000 C   0  0  0  0  0  0  0  0  0  0  0  0
    9.9665  -27.4984    0.0000 N   0  0  0  0  0  0  0  0  0  0  0  0
   10.5726  -26.9436    0.0000 C   0  0  0  0  0  0  0  0  0  0  0  0
   11.3561  -27.1912    0.0000 C   0  0  0  0  0  0  0  0  0  0  0  0
  1  2  2  0
  2  3  1  0
  3  6  2  0
  5  4  2  0
  4  1  1  0
  5  6  1  0
  5 10  1  0
  6  7  1  0
  7  8  1  0
  8  9  1  0
  9 10  2  0
 11 12  2  0
 12 13  1  0
 13 14  2  0
 14 15  1  0
 15 16  2  0
 16 11  1  0
 10 11  1  0
 17 18  1  0
 18 19  1  0
 19 20  1  0
 20 21  1  0
 21 17  2  0
  9 17  1  0
  8 22  2  0
 20 23  1  0
 23 24  1  0
 23 25  2  0
 19 26  1  0
 26 27  2  0
 27 32  1  0
 31 28  1  0
 28 29  2  0
 29 26  1  0
  1 30  1  0
 31 32  2  0
 32 33  1  0
 33 34  2  0
 34 35  1  0
 35 31  1  0
 35 36  1  0
 36 37  1  0
M  END
> <From>
www.bindingDB.org

> <BindingDB Reactant_set_id>
51293288

> <Ligand InChI>
InChI=1S/C30H25ClN4O2/c1-3-34-14-13-21-15-20(9-12-26(21)34)27-17-25(33-35(27)18(2)36)29-28(19-7-5-4-6-8-19)23-16-22(31)10-11-24(23)32-30(29)37/h4-16,27H,3,17H2,1-2H3,(H,32,37)

> <Ligand InChI Key>
QKIMXHJZQYNFDW-UHFFFAOYSA-N

> <BindingDB MonomerID>
50527106

> <BindingDB Ligand Name>
CHEMBL4559865

> <Target Name>
DNA repair protein RAD51 homolog 1

> <Target Source Organism According to Curator or DataSource>
Homo sapiens

> <Ki (nM)>


> <IC50 (nM)>


> <Kd (nM)>


> <EC50 (nM)>
 50000

> <kon (M-1-s-1)>


> <koff (s-1)>


> <pH>


> <Temp C>


> <Curation/DataSource>
ChEMBL

> <Article DOI>
10.1021/acs.jmedchem.9b01526

> <BindingDB Entry DOI>
10.7270/Q2SF30MF

> <PMID>
32037829

> <PubChem AID>


> <Patent Number>


> <Authors>
Bagnolini, G; Milano, D; Manerba, M; Schipani, F; Ortega, JA; Gioia, D; Falchi, F; Balboni, A; Farabegoli, F; De Franco, F; Robertson, J; Pellicciari, R; Pallavicini, I; Peri, S; Minucci, S; Girotto, S; Di Stefano, G; Roberti, M; Cavalli, A

> <Date of publication>
3/12/2020

> <Date in BindingDB>
2/25/2021

> <Institution>
Istituto Italiano di Tecnologia

> <Link to Ligand in BindingDB>
http://www.bindingdb.org/bind/chemsearch/marvin/MolStructure.jsp?monomerid=50527106

> <Link to Ligand-Target Pair in BindingDB>
http://www.bindingdb.org/jsp/dbsearch/PrimarySearch_ki.jsp?energyterm=kJ/mole&tag=pol&polymerid=4676&target=DNA+repair+protein+RAD51+homolog+1&column=ki&startPg=0&Increment=50&submit=Search

> <Link to Ligand-Target Pair in BindingDB>
http://www.bindingdb.org/jsp/dbsearch/PrimarySearch_ki.jsp?energyterm=kJ/mole&tag=r21&monomerid=50527106&enzyme=DNA+repair+protein+RAD51+homolog+1&column=ki&startPg=0&Increment=50&submit=Search

> <Ligand HET ID in PDB>


> <PDB ID(s) for Ligand-Target Complex>


> <PubChem CID of Ligand>
155557802

> <PubChem SID of Ligand>
440735688

> <ChEBI ID of Ligand>


> <ChEMBL ID of Ligand>


> <DrugBank ID of Ligand>


> <IUPHAR_GRAC ID of Ligand>


> <KEGG ID of Ligand>


> <ZINC ID of Ligand>


> <Number of Protein Chains in Target (bigger than 1 implies a multichain complex)>
1

> <BindingDB Target Chain Sequence>
MAMQMQLEANADTSVEEESFGPQPISRLEQCGINANDVKKLEEAGFHTVEAVAYAPKKELINIKGISEAKADKILAEAAKLVPMGFTTATEFHQRRSEIIQITTGSKELDKLLQGGIETGSITEMFGEFRTGKTQICHTLAVTCQLPIDRGGGEGKAMYIDTEGTFRPERLLAVAERYGLSGSDVLDNVAYARAFNTDHQTQLLYQASAMMVESRYALLIVDSATALYRTDYSGRGELSARQMHLARFLRMLLRLADEFGVAVVITNQVVAQVDGAAMFAADPKKPIGGNIIAHASTTRLYLRKGRGETRICKIYDSPCLPEAEAMFAINADGVGDAKD

> <PDB ID(s) of Target Chain>
1N0W,5JZC,5NP7,5NWL,8BQ2,8BR2,8BSC

> <UniProt (SwissProt) Recommended Name of Target Chain>
DNA repair protein RAD51 homolog 1

> <UniProt (SwissProt) Entry Name of Target Chain>
RAD51_HUMAN

> <UniProt (SwissProt) Primary ID of Target Chain>
Q06609

> <UniProt (SwissProt) Secondary ID(s) of Target Chain>
B0FXP0 B2R8T6 Q6FHX9 Q6ZNA8 Q9BV60

> <UniProt (SwissProt) Alternative ID(s) of Target Chain>


> <UniProt (TrEMBL) Submitted Name of Target Chain>


> <UniProt (TrEMBL) Entry Name of Target Chain>


> <UniProt (TrEMBL) Primary ID of Target Chain>


> <UniProt (TrEMBL) Secondary ID(s) of Target Chain>


> <UniProt (TrEMBL) Alternative ID(s) of Target Chain>


$$$$
 
     RDKit          2D

 41 46  0  0  0  0  0  0  0  0999 V2000
   14.4966  -20.8608    0.0000 C   0  0  0  0  0  0  0  0  0  0  0  0
   14.4953  -21.6891    0.0000 C   0  0  0  0  0  0  0  0  0  0  0  0
   15.2075  -22.1003    0.0000 C   0  0  0  0  0  0  0  0  0  0  0  0
   15.2056  -20.4454    0.0000 C   0  0  0  0  0  0  0  0  0  0  0  0
   15.9225  -20.8571    0.0000 C   0  0  0  0  0  0  0  0  0  0  0  0
   15.9213  -21.6866    0.0000 C   0  0  0  0  0  0  0  0  0  0  0  0
   16.6356  -22.0979    0.0000 N   0  0  0  0  0  0  0  0  0  0  0  0
   17.3556  -21.6886    0.0000 C   0  0  0  0  0  0  0  0  0  0  0  0
   17.3568  -20.8591    0.0000 C   0  0  0  0  0  0  0  0  0  0  0  0
   16.6379  -20.4391    0.0000 C   0  0  0  0  0  0  0  0  0  0  0  0
   16.6384  -19.6173    0.0000 C   0  0  0  0  0  0  0  0  0  0  0  0
   17.3559  -19.2070    0.0000 C   0  0  0  0  0  0  0  0  0  0  0  0
   17.3563  -18.3818    0.0000 C   0  0  0  0  0  0  0  0  0  0  0  0
   16.6399  -17.9659    0.0000 C   0  0  0  0  0  0  0  0  0  0  0  0
   15.9217  -18.3853    0.0000 C   0  0  0  0  0  0  0  0  0  0  0  0
   15.9248  -19.2092    0.0000 C   0  0  0  0  0  0  0  0  0  0  0  0
   18.0716  -20.4448    0.0000 C   0  0  0  0  0  0  0  0  0  0  0  0
   18.8257  -20.7850    0.0000 C   0  0  0  0  0  0  0  0  0  0  0  0
   19.3771  -20.1715    0.0000 C   0  0  0  0  0  0  0  0  0  0  0  0
   18.9679  -19.4545    0.0000 N   0  0  0  0  0  0  0  0  0  0  0  0
   18.1595  -19.6236    0.0000 N   0  0  0  0  0  0  0  0  0  0  0  0
   18.0704  -22.1015    0.0000 O   0  0  0  0  0  0  0  0  0  0  0  0
   19.3039  -18.7004    0.0000 C   0  0  0  0  0  0  0  0  0  0  0  0
   20.1255  -18.6164    0.0000 C   0  0  0  0  0  0  0  0  0  0  0  0
   18.8224  -18.0303    0.0000 O   0  0  0  0  0  0  0  0  0  0  0  0
   20.2008  -20.1677    0.0000 C   0  0  0  0  0  0  0  0  0  0  0  0
   20.6163  -20.8821    0.0000 C   0  0  0  0  0  0  0  0  0  0  0  0
   21.4291  -19.4477    0.0000 C   0  0  0  0  0  0  0  0  0  0  0  0
   20.6074  -19.4547    0.0000 C   0  0  0  0  0  0  0  0  0  0  0  0
   13.7838  -20.4516    0.0000 Cl  0  0  0  0  0  0  0  0  0  0  0  0
   20.4619  -17.8666    0.0000 C   0  0  0  0  0  0  0  0  0  0  0  0
   21.2795  -17.7830    0.0000 C   0  0  0  0  0  0  0  0  0  0  0  0
   21.7606  -18.4493    0.0000 O   0  0  0  0  0  0  0  0  0  0  0  0
   21.6159  -17.0332    0.0000 O   0  0  0  0  0  0  0  0  0  0  0  0
   21.8466  -20.1621    0.0000 C   0  0  0  0  0  0  0  0  0  0  0  0
   21.4412  -20.8776    0.0000 C   0  0  0  0  0  0  0  0  0  0  0  0
   21.9964  -21.4843    0.0000 C   0  0  0  0  0  0  0  0  0  0  0  0
   22.7451  -21.1437    0.0000 C   0  0  0  0  0  0  0  0  0  0  0  0
   22.6523  -20.3266    0.0000 N   0  0  0  0  0  0  0  0  0  0  0  0
   23.2585  -19.7718    0.0000 C   0  0  0  0  0  0  0  0  0  0  0  0
   24.0423  -20.0194    0.0000 C   0  0  0  0  0  0  0  0  0  0  0  0
  1  2  2  0
  2  3  1  0
  3  6  2  0
  5  4  2  0
  4  1  1  0
  5  6  1  0
  5 10  1  0
  6  7  1  0
  7  8  1  0
  8  9  1  0
  9 10  2  0
 11 12  2  0
 12 13  1  0
 13 14  2  0
 14 15  1  0
 15 16  2  0
 16 11  1  0
 10 11  1  0
 17 18  1  0
 18 19  1  0
 19 20  1  0
 20 21  1  0
 21 17  2  0
  9 17  1  0
  8 22  2  0
 20 23  1  0
 23 24  1  0
 23 25  2  0
 19 26  1  0
 26 27  2  0
 27 36  1  0
 35 28  1  0
 28 29  2  0
 29 26  1  0
  1 30  1  0
 24 31  1  0
 31 32  1  0
 32 33  1  0
 32 34  2  0
 35 36  2  0
 36 37  1  0
 37 38  2  0
 38 39  1  0
 39 35  1  0
 39 40  1  0
 40 41  1  0
M  END
> <From>
www.bindingDB.org

> <BindingDB Reactant_set_id>
51293290

> <Ligand InChI>
InChI=1S/C32H27ClN4O4/c1-2-36-15-14-21-16-20(8-11-26(21)36)27-18-25(35-37(27)28(38)12-13-29(39)40)31-30(19-6-4-3-5-7-19)23-17-22(33)9-10-24(23)34-32(31)41/h3-11,14-17,27H,2,12-13,18H2,1H3,(H,34,41)(H,39,40)

> <Ligand InChI Key>
SBYCUCXKJNPWMS-UHFFFAOYSA-N

> <BindingDB MonomerID>
50527108

> <BindingDB Ligand Name>
CHEMBL4470365

> <Target Name>
DNA repair protein RAD51 homolog 1

> <Target Source Organism According to Curator or DataSource>
Homo sapiens

> <Ki (nM)>


> <IC50 (nM)>


> <Kd (nM)>


> <EC50 (nM)>
 10000

> <kon (M-1-s-1)>


> <koff (s-1)>


> <pH>


> <Temp C>


> <Curation/DataSource>
ChEMBL

> <Article DOI>
10.1021/acs.jmedchem.9b01526

> <BindingDB Entry DOI>
10.7270/Q2SF30MF

> <PMID>
32037829

> <PubChem AID>


> <Patent Number>


> <Authors>
Bagnolini, G; Milano, D; Manerba, M; Schipani, F; Ortega, JA; Gioia, D; Falchi, F; Balboni, A; Farabegoli, F; De Franco, F; Robertson, J; Pellicciari, R; Pallavicini, I; Peri, S; Minucci, S; Girotto, S; Di Stefano, G; Roberti, M; Cavalli, A

> <Date of publication>
3/12/2020

> <Date in BindingDB>
2/25/2021

> <Institution>
Istituto Italiano di Tecnologia

> <Link to Ligand in BindingDB>
http://www.bindingdb.org/bind/chemsearch/marvin/MolStructure.jsp?monomerid=50527108

> <Link to Ligand-Target Pair in BindingDB>
http://www.bindingdb.org/jsp/dbsearch/PrimarySearch_ki.jsp?energyterm=kJ/mole&tag=pol&polymerid=4676&target=DNA+repair+protein+RAD51+homolog+1&column=ki&startPg=0&Increment=50&submit=Search

> <Link to Ligand-Target Pair in BindingDB>
http://www.bindingdb.org/jsp/dbsearch/PrimarySearch_ki.jsp?energyterm=kJ/mole&tag=r21&monomerid=50527108&enzyme=DNA+repair+protein+RAD51+homolog+1&column=ki&startPg=0&Increment=50&submit=Search

> <Ligand HET ID in PDB>


> <PDB ID(s) for Ligand-Target Complex>


> <PubChem CID of Ligand>
155534052

> <PubChem SID of Ligand>
440735690

> <ChEBI ID of Ligand>


> <ChEMBL ID of Ligand>


> <DrugBank ID of Ligand>


> <IUPHAR_GRAC ID of Ligand>


> <KEGG ID of Ligand>


> <ZINC ID of Ligand>


> <Number of Protein Chains in Target (bigger than 1 implies a multichain complex)>
1

> <BindingDB Target Chain Sequence>
MAMQMQLEANADTSVEEESFGPQPISRLEQCGINANDVKKLEEAGFHTVEAVAYAPKKELINIKGISEAKADKILAEAAKLVPMGFTTATEFHQRRSEIIQITTGSKELDKLLQGGIETGSITEMFGEFRTGKTQICHTLAVTCQLPIDRGGGEGKAMYIDTEGTFRPERLLAVAERYGLSGSDVLDNVAYARAFNTDHQTQLLYQASAMMVESRYALLIVDSATALYRTDYSGRGELSARQMHLARFLRMLLRLADEFGVAVVITNQVVAQVDGAAMFAADPKKPIGGNIIAHASTTRLYLRKGRGETRICKIYDSPCLPEAEAMFAINADGVGDAKD

> <PDB ID(s) of Target Chain>
1N0W,5JZC,5NP7,5NWL,8BQ2,8BR2,8BSC

> <UniProt (SwissProt) Recommended Name of Target Chain>
DNA repair protein RAD51 homolog 1

> <UniProt (SwissProt) Entry Name of Target Chain>
RAD51_HUMAN

> <UniProt (SwissProt) Primary ID of Target Chain>
Q06609

> <UniProt (SwissProt) Secondary ID(s) of Target Chain>
B0FXP0 B2R8T6 Q6FHX9 Q6ZNA8 Q9BV60

> <UniProt (SwissProt) Alternative ID(s) of Target Chain>


> <UniProt (TrEMBL) Submitted Name of Target Chain>


> <UniProt (TrEMBL) Entry Name of Target Chain>


> <UniProt (TrEMBL) Primary ID of Target Chain>


> <UniProt (TrEMBL) Secondary ID(s) of Target Chain>


> <UniProt (TrEMBL) Alternative ID(s) of Target Chain>


$$$$
 
     RDKit          2D

 44 49  0  0  0  0  0  0  0  0999 V2000
   28.6114  -12.5318    0.0000 C   0  0  0  0  0  0  0  0  0  0  0  0
   28.6102  -13.3602    0.0000 C   0  0  0  0  0  0  0  0  0  0  0  0
   29.3224  -13.7715    0.0000 C   0  0  0  0  0  0  0  0  0  0  0  0
   29.3205  -12.1165    0.0000 C   0  0  0  0  0  0  0  0  0  0  0  0
   30.0373  -12.5282    0.0000 C   0  0  0  0  0  0  0  0  0  0  0  0
   30.0362  -13.3577    0.0000 C   0  0  0  0  0  0  0  0  0  0  0  0
   30.7506  -13.7691    0.0000 N   0  0  0  0  0  0  0  0  0  0  0  0
   31.4708  -13.3597    0.0000 C   0  0  0  0  0  0  0  0  0  0  0  0
   31.4720  -12.5302    0.0000 C   0  0  0  0  0  0  0  0  0  0  0  0
   30.7529  -12.1100    0.0000 C   0  0  0  0  0  0  0  0  0  0  0  0
   30.7534  -11.2882    0.0000 C   0  0  0  0  0  0  0  0  0  0  0  0
   31.4711  -10.8779    0.0000 C   0  0  0  0  0  0  0  0  0  0  0  0
   31.4714  -10.0525    0.0000 C   0  0  0  0  0  0  0  0  0  0  0  0
   30.7550   -9.6367    0.0000 C   0  0  0  0  0  0  0  0  0  0  0  0
   30.0366  -10.0562    0.0000 C   0  0  0  0  0  0  0  0  0  0  0  0
   30.0398  -10.8801    0.0000 C   0  0  0  0  0  0  0  0  0  0  0  0
   32.1868  -12.1159    0.0000 C   0  0  0  0  0  0  0  0  0  0  0  0
   32.9410  -12.4561    0.0000 C   0  0  0  0  0  0  0  0  0  0  0  0
   33.4924  -11.8425    0.0000 C   0  0  0  0  0  0  0  0  0  0  0  0
   33.0831  -11.1255    0.0000 N   0  0  0  0  0  0  0  0  0  0  0  0
   32.2747  -11.2946    0.0000 N   0  0  0  0  0  0  0  0  0  0  0  0
   32.1855  -13.7726    0.0000 O   0  0  0  0  0  0  0  0  0  0  0  0
   33.4192  -10.3713    0.0000 C   0  0  0  0  0  0  0  0  0  0  0  0
   34.2409  -10.2873    0.0000 C   0  0  0  0  0  0  0  0  0  0  0  0
   32.9376   -9.7010    0.0000 O   0  0  0  0  0  0  0  0  0  0  0  0
   34.3162  -11.8387    0.0000 C   0  0  0  0  0  0  0  0  0  0  0  0
   34.7317  -12.5531    0.0000 C   0  0  0  0  0  0  0  0  0  0  0  0
   35.5548  -12.5496    0.0000 C   0  0  0  0  0  0  0  0  0  0  0  0
   35.9622  -11.8331    0.0000 C   0  0  0  0  0  0  0  0  0  0  0  0
   35.5446  -11.1186    0.0000 C   0  0  0  0  0  0  0  0  0  0  0  0
   34.7229  -11.1256    0.0000 C   0  0  0  0  0  0  0  0  0  0  0  0
   27.8986  -12.1226    0.0000 Cl  0  0  0  0  0  0  0  0  0  0  0  0
   34.5773   -9.5374    0.0000 C   0  0  0  0  0  0  0  0  0  0  0  0
   35.3950   -9.4538    0.0000 C   0  0  0  0  0  0  0  0  0  0  0  0
   35.8762  -10.1201    0.0000 O   0  0  0  0  0  0  0  0  0  0  0  0
   35.7314   -8.7039    0.0000 O   0  0  0  0  0  0  0  0  0  0  0  0
   36.7799  -11.8282    0.0000 C   0  0  0  0  0  0  0  0  0  0  0  0
   37.1945  -12.5392    0.0000 C   0  0  0  0  0  0  0  0  0  0  0  0
   38.0156  -12.5347    0.0000 C   0  0  0  0  0  0  0  0  0  0  0  0
   38.4232  -11.8199    0.0000 C   0  0  0  0  0  0  0  0  0  0  0  0
   38.0035  -11.1082    0.0000 C   0  0  0  0  0  0  0  0  0  0  0  0
   37.1839  -11.1162    0.0000 C   0  0  0  0  0  0  0  0  0  0  0  0
   39.2451  -11.8138    0.0000 O   0  0  0  0  0  0  0  0  0  0  0  0
   39.6611  -12.5226    0.0000 C   0  0  0  0  0  0  0  0  0  0  0  0
  1  2  2  0
  2  3  1  0
  3  6  2  0
  5  4  2  0
  4  1  1  0
  5  6  1  0
  5 10  1  0
  6  7  1  0
  7  8  1  0
  8  9  1  0
  9 10  2  0
 11 12  2  0
 12 13  1  0
 13 14  2  0
 14 15  1  0
 15 16  2  0
 16 11  1  0
 10 11  1  0
 17 18  1  0
 18 19  1  0
 19 20  1  0
 20 21  1  0
 21 17  2  0
  9 17  1  0
  8 22  2  0
 20 23  1  0
 23 24  1  0
 23 25  2  0
 19 26  1  0
 26 27  2  0
 27 28  1  0
 28 29  2  0
 29 30  1  0
 30 31  2  0
 31 26  1  0
  1 32  1  0
 24 33  1  0
 33 34  1  0
 34 35  1  0
 34 36  2  0
 37 38  2  0
 38 39  1  0
 39 40  2  0
 40 41  1  0
 41 42  2  0
 42 37  1  0
 29 37  1  0
 40 43  1  0
 43 44  1  0
M  END
> <From>
www.bindingDB.org

> <BindingDB Reactant_set_id>
51293291

> <Ligand InChI>
InChI=1S/C35H28ClN3O5/c1-44-26-14-11-22(12-15-26)21-7-9-23(10-8-21)30-20-29(38-39(30)31(40)17-18-32(41)42)34-33(24-5-3-2-4-6-24)27-19-25(36)13-16-28(27)37-35(34)43/h2-16,19,30H,17-18,20H2,1H3,(H,37,43)(H,41,42)

> <Ligand InChI Key>
YBTJJZGJMJUMND-UHFFFAOYSA-N

> <BindingDB MonomerID>
50527109

> <BindingDB Ligand Name>
CHEMBL4461983

> <Target Name>
DNA repair protein RAD51 homolog 1

> <Target Source Organism According to Curator or DataSource>
Homo sapiens

> <Ki (nM)>


> <IC50 (nM)>


> <Kd (nM)>


> <EC50 (nM)>
 20000

> <kon (M-1-s-1)>


> <koff (s-1)>


> <pH>


> <Temp C>


> <Curation/DataSource>
ChEMBL

> <Article DOI>
10.1021/acs.jmedchem.9b01526

> <BindingDB Entry DOI>
10.7270/Q2SF30MF

> <PMID>
32037829

> <PubChem AID>


> <Patent Number>


> <Authors>
Bagnolini, G; Milano, D; Manerba, M; Schipani, F; Ortega, JA; Gioia, D; Falchi, F; Balboni, A; Farabegoli, F; De Franco, F; Robertson, J; Pellicciari, R; Pallavicini, I; Peri, S; Minucci, S; Girotto, S; Di Stefano, G; Roberti, M; Cavalli, A

> <Date of publication>
3/12/2020

> <Date in BindingDB>
2/25/2021

> <Institution>
Istituto Italiano di Tecnologia

> <Link to Ligand in BindingDB>
http://www.bindingdb.org/bind/chemsearch/marvin/MolStructure.jsp?monomerid=50527109

> <Link to Ligand-Target Pair in BindingDB>
http://www.bindingdb.org/jsp/dbsearch/PrimarySearch_ki.jsp?energyterm=kJ/mole&tag=pol&polymerid=4676&target=DNA+repair+protein+RAD51+homolog+1&column=ki&startPg=0&Increment=50&submit=Search

> <Link to Ligand-Target Pair in BindingDB>
http://www.bindingdb.org/jsp/dbsearch/PrimarySearch_ki.jsp?energyterm=kJ/mole&tag=r21&monomerid=50527109&enzyme=DNA+repair+protein+RAD51+homolog+1&column=ki&startPg=0&Increment=50&submit=Search

> <Ligand HET ID in PDB>


> <PDB ID(s) for Ligand-Target Complex>


> <PubChem CID of Ligand>
155528805

> <PubChem SID of Ligand>
440735691

> <ChEBI ID of Ligand>


> <ChEMBL ID of Ligand>


> <DrugBank ID of Ligand>


> <IUPHAR_GRAC ID of Ligand>


> <KEGG ID of Ligand>


> <ZINC ID of Ligand>


> <Number of Protein Chains in Target (bigger than 1 implies a multichain complex)>
1

> <BindingDB Target Chain Sequence>
MAMQMQLEANADTSVEEESFGPQPISRLEQCGINANDVKKLEEAGFHTVEAVAYAPKKELINIKGISEAKADKILAEAAKLVPMGFTTATEFHQRRSEIIQITTGSKELDKLLQGGIETGSITEMFGEFRTGKTQICHTLAVTCQLPIDRGGGEGKAMYIDTEGTFRPERLLAVAERYGLSGSDVLDNVAYARAFNTDHQTQLLYQASAMMVESRYALLIVDSATALYRTDYSGRGELSARQMHLARFLRMLLRLADEFGVAVVITNQVVAQVDGAAMFAADPKKPIGGNIIAHASTTRLYLRKGRGETRICKIYDSPCLPEAEAMFAINADGVGDAKD

> <PDB ID(s) of Target Chain>
1N0W,5JZC,5NP7,5NWL,8BQ2,8BR2,8BSC

> <UniProt (SwissProt) Recommended Name of Target Chain>
DNA repair protein RAD51 homolog 1

> <UniProt (SwissProt) Entry Name of Target Chain>
RAD51_HUMAN

> <UniProt (SwissProt) Primary ID of Target Chain>
Q06609

> <UniProt (SwissProt) Secondary ID(s) of Target Chain>
B0FXP0 B2R8T6 Q6FHX9 Q6ZNA8 Q9BV60

> <UniProt (SwissProt) Alternative ID(s) of Target Chain>


> <UniProt (TrEMBL) Submitted Name of Target Chain>


> <UniProt (TrEMBL) Entry Name of Target Chain>


> <UniProt (TrEMBL) Primary ID of Target Chain>


> <UniProt (TrEMBL) Secondary ID(s) of Target Chain>


> <UniProt (TrEMBL) Alternative ID(s) of Target Chain>


$$$$
 
     RDKit          2D

 43 48  0  0  0  0  0  0  0  0999 V2000
   15.1177  -12.5785    0.0000 C   0  0  0  0  0  0  0  0  0  0  0  0
   15.1166  -13.4069    0.0000 C   0  0  0  0  0  0  0  0  0  0  0  0
   15.8287  -13.8183    0.0000 C   0  0  0  0  0  0  0  0  0  0  0  0
   15.8270  -12.1631    0.0000 C   0  0  0  0  0  0  0  0  0  0  0  0
   16.5438  -12.5749    0.0000 C   0  0  0  0  0  0  0  0  0  0  0  0
   16.5427  -13.4044    0.0000 C   0  0  0  0  0  0  0  0  0  0  0  0
   17.2572  -13.8159    0.0000 N   0  0  0  0  0  0  0  0  0  0  0  0
   17.9774  -13.4064    0.0000 C   0  0  0  0  0  0  0  0  0  0  0  0
   17.9785  -12.5769    0.0000 C   0  0  0  0  0  0  0  0  0  0  0  0
   17.2595  -12.1567    0.0000 C   0  0  0  0  0  0  0  0  0  0  0  0
   17.2600  -11.3348    0.0000 C   0  0  0  0  0  0  0  0  0  0  0  0
   17.9777  -10.9244    0.0000 C   0  0  0  0  0  0  0  0  0  0  0  0
   17.9780  -10.0990    0.0000 C   0  0  0  0  0  0  0  0  0  0  0  0
   17.2615   -9.6831    0.0000 C   0  0  0  0  0  0  0  0  0  0  0  0
   16.5431  -10.1027    0.0000 C   0  0  0  0  0  0  0  0  0  0  0  0
   16.5463  -10.9266    0.0000 C   0  0  0  0  0  0  0  0  0  0  0  0
   18.6934  -12.1625    0.0000 C   0  0  0  0  0  0  0  0  0  0  0  0
   19.4477  -12.5028    0.0000 C   0  0  0  0  0  0  0  0  0  0  0  0
   19.9991  -11.8891    0.0000 C   0  0  0  0  0  0  0  0  0  0  0  0
   19.5898  -11.1721    0.0000 N   0  0  0  0  0  0  0  0  0  0  0  0
   18.7813  -11.3411    0.0000 N   0  0  0  0  0  0  0  0  0  0  0  0
   18.6922  -13.8194    0.0000 O   0  0  0  0  0  0  0  0  0  0  0  0
   19.9259  -10.4178    0.0000 C   0  0  0  0  0  0  0  0  0  0  0  0
   20.7478  -10.3338    0.0000 C   0  0  0  0  0  0  0  0  0  0  0  0
   19.4444   -9.7475    0.0000 O   0  0  0  0  0  0  0  0  0  0  0  0
   20.8231  -11.8853    0.0000 C   0  0  0  0  0  0  0  0  0  0  0  0
   21.2386  -12.5997    0.0000 C   0  0  0  0  0  0  0  0  0  0  0  0
   22.0618  -12.5963    0.0000 C   0  0  0  0  0  0  0  0  0  0  0  0
   22.4691  -11.8798    0.0000 C   0  0  0  0  0  0  0  0  0  0  0  0
   22.0515  -11.1652    0.0000 C   0  0  0  0  0  0  0  0  0  0  0  0
   21.2297  -11.1722    0.0000 C   0  0  0  0  0  0  0  0  0  0  0  0
   14.4049  -12.1692    0.0000 Cl  0  0  0  0  0  0  0  0  0  0  0  0
   21.0842   -9.5838    0.0000 C   0  0  0  0  0  0  0  0  0  0  0  0
   21.9020   -9.5003    0.0000 C   0  0  0  0  0  0  0  0  0  0  0  0
   22.3831  -10.1666    0.0000 O   0  0  0  0  0  0  0  0  0  0  0  0
   22.2384   -8.7503    0.0000 O   0  0  0  0  0  0  0  0  0  0  0  0
   23.2870  -11.8748    0.0000 C   0  0  0  0  0  0  0  0  0  0  0  0
   23.7016  -12.5859    0.0000 C   0  0  0  0  0  0  0  0  0  0  0  0
   24.5228  -12.5813    0.0000 C   0  0  0  0  0  0  0  0  0  0  0  0
   24.9303  -11.8665    0.0000 C   0  0  0  0  0  0  0  0  0  0  0  0
   24.5107  -11.1548    0.0000 C   0  0  0  0  0  0  0  0  0  0  0  0
   23.6908  -11.1628    0.0000 C   0  0  0  0  0  0  0  0  0  0  0  0
   25.7523  -11.8605    0.0000 Br  0  0  0  0  0  0  0  0  0  0  0  0
  1  2  2  0
  2  3  1  0
  3  6  2  0
  5  4  2  0
  4  1  1  0
  5  6  1  0
  5 10  1  0
  6  7  1  0
  7  8  1  0
  8  9  1  0
  9 10  2  0
 11 12  2  0
 12 13  1  0
 13 14  2  0
 14 15  1  0
 15 16  2  0
 16 11  1  0
 10 11  1  0
 17 18  1  0
 18 19  1  0
 19 20  1  0
 20 21  1  0
 21 17  2  0
  9 17  1  0
  8 22  2  0
 20 23  1  0
 23 24  1  0
 23 25  2  0
 19 26  1  0
 26 27  2  0
 27 28  1  0
 28 29  2  0
 29 30  1  0
 30 31  2  0
 31 26  1  0
  1 32  1  0
 24 33  1  0
 33 34  1  0
 34 35  1  0
 34 36  2  0
 37 38  2  0
 38 39  1  0
 39 40  2  0
 40 41  1  0
 41 42  2  0
 42 37  1  0
 29 37  1  0
 40 43  1  0
M  END
> <From>
www.bindingDB.org

> <BindingDB Reactant_set_id>
51293292

> <Ligand InChI>
InChI=1S/C34H25BrClN3O4/c35-24-12-10-21(11-13-24)20-6-8-22(9-7-20)29-19-28(38-39(29)30(40)16-17-31(41)42)33-32(23-4-2-1-3-5-23)26-18-25(36)14-15-27(26)37-34(33)43/h1-15,18,29H,16-17,19H2,(H,37,43)(H,41,42)

> <Ligand InChI Key>
CNJUNZXVDOUMCQ-UHFFFAOYSA-N

> <BindingDB MonomerID>
50527110

> <BindingDB Ligand Name>
CHEMBL4549187

> <Target Name>
DNA repair protein RAD51 homolog 1

> <Target Source Organism According to Curator or DataSource>
Homo sapiens

> <Ki (nM)>


> <IC50 (nM)>


> <Kd (nM)>


> <EC50 (nM)>
 20000

> <kon (M-1-s-1)>


> <koff (s-1)>


> <pH>


> <Temp C>


> <Curation/DataSource>
ChEMBL

> <Article DOI>
10.1021/acs.jmedchem.9b01526

> <BindingDB Entry DOI>
10.7270/Q2SF30MF

> <PMID>
32037829

> <PubChem AID>


> <Patent Number>


> <Authors>
Bagnolini, G; Milano, D; Manerba, M; Schipani, F; Ortega, JA; Gioia, D; Falchi, F; Balboni, A; Farabegoli, F; De Franco, F; Robertson, J; Pellicciari, R; Pallavicini, I; Peri, S; Minucci, S; Girotto, S; Di Stefano, G; Roberti, M; Cavalli, A

> <Date of publication>
3/12/2020

> <Date in BindingDB>
2/25/2021

> <Institution>
Istituto Italiano di Tecnologia

> <Link to Ligand in BindingDB>
http://www.bindingdb.org/bind/chemsearch/marvin/MolStructure.jsp?monomerid=50527110

> <Link to Ligand-Target Pair in BindingDB>
http://www.bindingdb.org/jsp/dbsearch/PrimarySearch_ki.jsp?energyterm=kJ/mole&tag=pol&polymerid=4676&target=DNA+repair+protein+RAD51+homolog+1&column=ki&startPg=0&Increment=50&submit=Search

> <Link to Ligand-Target Pair in BindingDB>
http://www.bindingdb.org/jsp/dbsearch/PrimarySearch_ki.jsp?energyterm=kJ/mole&tag=r21&monomerid=50527110&enzyme=DNA+repair+protein+RAD51+homolog+1&column=ki&startPg=0&Increment=50&submit=Search

> <Ligand HET ID in PDB>


> <PDB ID(s) for Ligand-Target Complex>


> <PubChem CID of Ligand>
155549243

> <PubChem SID of Ligand>
440735692

> <ChEBI ID of Ligand>


> <ChEMBL ID of Ligand>


> <DrugBank ID of Ligand>


> <IUPHAR_GRAC ID of Ligand>


> <KEGG ID of Ligand>


> <ZINC ID of Ligand>


> <Number of Protein Chains in Target (bigger than 1 implies a multichain complex)>
1

> <BindingDB Target Chain Sequence>
MAMQMQLEANADTSVEEESFGPQPISRLEQCGINANDVKKLEEAGFHTVEAVAYAPKKELINIKGISEAKADKILAEAAKLVPMGFTTATEFHQRRSEIIQITTGSKELDKLLQGGIETGSITEMFGEFRTGKTQICHTLAVTCQLPIDRGGGEGKAMYIDTEGTFRPERLLAVAERYGLSGSDVLDNVAYARAFNTDHQTQLLYQASAMMVESRYALLIVDSATALYRTDYSGRGELSARQMHLARFLRMLLRLADEFGVAVVITNQVVAQVDGAAMFAADPKKPIGGNIIAHASTTRLYLRKGRGETRICKIYDSPCLPEAEAMFAINADGVGDAKD

> <PDB ID(s) of Target Chain>
1N0W,5JZC,5NP7,5NWL,8BQ2,8BR2,8BSC

> <UniProt (SwissProt) Recommended Name of Target Chain>
DNA repair protein RAD51 homolog 1

> <UniProt (SwissProt) Entry Name of Target Chain>
RAD51_HUMAN

> <UniProt (SwissProt) Primary ID of Target Chain>
Q06609

> <UniProt (SwissProt) Secondary ID(s) of Target Chain>
B0FXP0 B2R8T6 Q6FHX9 Q6ZNA8 Q9BV60

> <UniProt (SwissProt) Alternative ID(s) of Target Chain>


> <UniProt (TrEMBL) Submitted Name of Target Chain>


> <UniProt (TrEMBL) Entry Name of Target Chain>


> <UniProt (TrEMBL) Primary ID of Target Chain>


> <UniProt (TrEMBL) Secondary ID(s) of Target Chain>


> <UniProt (TrEMBL) Alternative ID(s) of Target Chain>


$$$$

  Mrv0541 11241418212D          

 40 44  0  0  0  0            999 V2000
   12.2695  -19.8128    0.0000 C   0  0  0  0  0  0  0  0  0  0  0  0
   12.2695  -20.6364    0.0000 C   0  0  0  0  0  0  0  0  0  0  0  0
   12.9846  -21.0493    0.0000 C   0  0  0  0  0  0  0  0  0  0  0  0
   13.6983  -20.6372    0.0000 C   0  0  0  0  0  0  0  0  0  0  0  0
   13.6983  -19.8141    0.0000 C   0  0  0  0  0  0  0  0  0  0  0  0
   12.9858  -19.4027    0.0000 C   0  0  0  0  0  0  0  0  0  0  0  0
   14.4163  -21.0518    0.0000 N   0  0  0  0  0  0  0  0  0  0  0  0
   15.1310  -20.6392    0.0000 C   0  0  0  0  0  0  0  0  0  0  0  0
   15.1310  -19.8154    0.0000 C   0  0  0  0  0  0  0  0  0  0  0  0
   14.4160  -19.4025    0.0000 C   0  0  0  0  0  0  0  0  0  0  0  0
   14.4160  -18.5780    0.0000 C   0  0  0  0  0  0  0  0  0  0  0  0
   15.1292  -18.1663    0.0000 C   0  0  0  0  0  0  0  0  0  0  0  0
   15.1292  -17.3401    0.0000 C   0  0  0  0  0  0  0  0  0  0  0  0
   14.4147  -16.9276    0.0000 C   0  0  0  0  0  0  0  0  0  0  0  0
   13.7009  -17.3397    0.0000 C   0  0  0  0  0  0  0  0  0  0  0  0
   13.7009  -18.1636    0.0000 C   0  0  0  0  0  0  0  0  0  0  0  0
   15.8155  -19.3538    0.0000 C   0  0  0  0  0  0  0  0  0  0  0  0
   16.5897  -19.6348    0.0000 C   0  0  0  0  0  0  0  0  0  0  0  0
   17.0934  -18.9751    0.0000 C   0  0  0  0  0  0  0  0  0  0  0  0
   16.6317  -18.2901    0.0000 N   0  0  0  0  0  0  0  0  0  0  0  0
   15.8367  -18.5252    0.0000 N   0  0  0  0  0  0  0  0  0  0  0  0
   17.9202  -19.0034    0.0000 C   0  0  0  0  0  0  0  0  0  0  0  0
   15.8474  -21.0528    0.0000 O   0  0  0  0  0  0  0  0  0  0  0  0
   11.5553  -19.4004    0.0000 Cl  0  0  0  0  0  0  0  0  0  0  0  0
   18.3071  -19.7334    0.0000 C   0  0  0  0  0  0  0  0  0  0  0  0
   19.1391  -19.7530    0.0000 C   0  0  0  0  0  0  0  0  0  0  0  0
   19.5719  -19.0494    0.0000 C   0  0  0  0  0  0  0  0  0  0  0  0
   19.1788  -18.3228    0.0000 C   0  0  0  0  0  0  0  0  0  0  0  0
   18.3531  -18.2998    0.0000 C   0  0  0  0  0  0  0  0  0  0  0  0
   17.0317  -17.5716    0.0000 C   0  0  0  0  0  0  0  0  0  0  0  0
   17.8566  -17.5605    0.0000 C   0  0  0  0  0  0  0  0  0  0  0  0
   16.6098  -16.8627    0.0000 O   0  0  0  0  0  0  0  0  0  0  0  0
   18.2594  -16.8406    0.0000 C   0  0  0  0  0  0  0  0  0  0  0  0
   19.0842  -16.8296    0.0000 C   0  0  0  0  0  0  0  0  0  0  0  0
   19.4871  -16.1098    0.0000 O   0  0  0  0  0  0  0  0  0  0  0  0
   19.5063  -17.5385    0.0000 O   0  0  0  0  0  0  0  0  0  0  0  0
   20.3962  -19.0794    0.0000 C   0  0  0  0  0  0  0  0  0  0  0  0
   20.7825  -19.8083    0.0000 F   0  0  0  0  0  0  0  0  0  0  0  0
   20.8344  -18.3805    0.0000 F   0  0  0  0  0  0  0  0  0  0  0  0
   21.2187  -19.0773    0.0000 F   0  0  0  0  0  0  0  0  0  0  0  0
  1  2  2  0  0  0  0
  2  3  1  0  0  0  0
  3  4  2  0  0  0  0
  4  5  1  0  0  0  0
  5  6  2  0  0  0  0
  6  1  1  0  0  0  0
  4  7  1  0  0  0  0
  7  8  1  0  0  0  0
  8  9  1  0  0  0  0
  9 10  2  0  0  0  0
 10  5  1  0  0  0  0
 10 11  1  0  0  0  0
 11 12  2  0  0  0  0
 12 13  1  0  0  0  0
 13 14  2  0  0  0  0
 14 15  1  0  0  0  0
 15 16  2  0  0  0  0
 16 11  1  0  0  0  0
  9 17  1  0  0  0  0
 17 18  1  0  0  0  0
 18 19  1  0  0  0  0
 19 20  1  0  0  0  0
 20 21  1  0  0  0  0
 21 17  2  0  0  0  0
 19 22  1  0  0  0  0
  8 23  2  0  0  0  0
  1 24  1  0  0  0  0
 22 25  2  0  0  0  0
 25 26  1  0  0  0  0
 26 27  2  0  0  0  0
 27 28  1  0  0  0  0
 28 29  2  0  0  0  0
 29 22  1  0  0  0  0
 20 30  1  0  0  0  0
 30 31  1  0  0  0  0
 30 32  2  0  0  0  0
 31 33  1  0  0  0  0
 33 34  1  0  0  0  0
 34 35  1  0  0  0  0
 34 36  2  0  0  0  0
 27 37  1  0  0  0  0
 37 38  1  0  0  0  0
 37 39  1  0  0  0  0
 37 40  1  0  0  0  0
M  END
> <From>
www.bindingDB.org

> <BindingDB Reactant_set_id>
51293293

> <Ligand InChI>
InChI=1S/C29H21ClF3N3O4/c30-19-10-11-21-20(14-19)26(17-4-2-1-3-5-17)27(28(40)34-21)22-15-23(36(35-22)24(37)12-13-25(38)39)16-6-8-18(9-7-16)29(31,32)33/h1-11,14,23H,12-13,15H2,(H,34,40)(H,38,39)

> <Ligand InChI Key>
JMLZANPUPVANFX-UHFFFAOYSA-N

> <BindingDB MonomerID>
50440089

> <BindingDB Ligand Name>
CHEMBL2426089

> <Target Name>
DNA repair protein RAD51 homolog 1

> <Target Source Organism According to Curator or DataSource>
Homo sapiens

> <Ki (nM)>


> <IC50 (nM)>


> <Kd (nM)>


> <EC50 (nM)>
 29000

> <kon (M-1-s-1)>


> <koff (s-1)>


> <pH>


> <Temp C>


> <Curation/DataSource>
ChEMBL

> <Article DOI>
10.1021/acs.jmedchem.9b01526

> <BindingDB Entry DOI>
10.7270/Q2SF30MF

> <PMID>
32037829

> <PubChem AID>


> <Patent Number>


> <Authors>
Bagnolini, G; Milano, D; Manerba, M; Schipani, F; Ortega, JA; Gioia, D; Falchi, F; Balboni, A; Farabegoli, F; De Franco, F; Robertson, J; Pellicciari, R; Pallavicini, I; Peri, S; Minucci, S; Girotto, S; Di Stefano, G; Roberti, M; Cavalli, A

> <Date of publication>
3/12/2020

> <Date in BindingDB>
2/25/2021

> <Institution>
Istituto Italiano di Tecnologia

> <Link to Ligand in BindingDB>
http://www.bindingdb.org/bind/chemsearch/marvin/MolStructure.jsp?monomerid=50440089

> <Link to Ligand-Target Pair in BindingDB>
http://www.bindingdb.org/jsp/dbsearch/PrimarySearch_ki.jsp?energyterm=kJ/mole&tag=pol&polymerid=4676&target=DNA+repair+protein+RAD51+homolog+1&column=ki&startPg=0&Increment=50&submit=Search

> <Link to Ligand-Target Pair in BindingDB>
http://www.bindingdb.org/jsp/dbsearch/PrimarySearch_ki.jsp?energyterm=kJ/mole&tag=r21&monomerid=50440089&enzyme=DNA+repair+protein+RAD51+homolog+1&column=ki&startPg=0&Increment=50&submit=Search

> <Ligand HET ID in PDB>


> <PDB ID(s) for Ligand-Target Complex>


> <PubChem CID of Ligand>
71819431

> <PubChem SID of Ligand>
175452406

> <ChEBI ID of Ligand>


> <ChEMBL ID of Ligand>
CHEMBL2426089

> <DrugBank ID of Ligand>


> <IUPHAR_GRAC ID of Ligand>


> <KEGG ID of Ligand>


> <ZINC ID of Ligand>
ZINC96283827

> <Number of Protein Chains in Target (bigger than 1 implies a multichain complex)>
1

> <BindingDB Target Chain Sequence>
MAMQMQLEANADTSVEEESFGPQPISRLEQCGINANDVKKLEEAGFHTVEAVAYAPKKELINIKGISEAKADKILAEAAKLVPMGFTTATEFHQRRSEIIQITTGSKELDKLLQGGIETGSITEMFGEFRTGKTQICHTLAVTCQLPIDRGGGEGKAMYIDTEGTFRPERLLAVAERYGLSGSDVLDNVAYARAFNTDHQTQLLYQASAMMVESRYALLIVDSATALYRTDYSGRGELSARQMHLARFLRMLLRLADEFGVAVVITNQVVAQVDGAAMFAADPKKPIGGNIIAHASTTRLYLRKGRGETRICKIYDSPCLPEAEAMFAINADGVGDAKD

> <PDB ID(s) of Target Chain>
1N0W,5JZC,5NP7,5NWL,8BQ2,8BR2,8BSC

> <UniProt (SwissProt) Recommended Name of Target Chain>
DNA repair protein RAD51 homolog 1

> <UniProt (SwissProt) Entry Name of Target Chain>
RAD51_HUMAN

> <UniProt (SwissProt) Primary ID of Target Chain>
Q06609

> <UniProt (SwissProt) Secondary ID(s) of Target Chain>
B0FXP0 B2R8T6 Q6FHX9 Q6ZNA8 Q9BV60

> <UniProt (SwissProt) Alternative ID(s) of Target Chain>


> <UniProt (TrEMBL) Submitted Name of Target Chain>


> <UniProt (TrEMBL) Entry Name of Target Chain>


> <UniProt (TrEMBL) Primary ID of Target Chain>


> <UniProt (TrEMBL) Secondary ID(s) of Target Chain>


> <UniProt (TrEMBL) Alternative ID(s) of Target Chain>


$$$$

  Mrv0541 11241418212D          

 37 41  0  0  0  0            999 V2000
    1.4924  -13.1534    0.0000 C   0  0  0  0  0  0  0  0  0  0  0  0
    1.4996  -13.9780    0.0000 C   0  0  0  0  0  0  0  0  0  0  0  0
    2.2131  -14.3842    0.0000 C   0  0  0  0  0  0  0  0  0  0  0  0
    2.9252  -13.9673    0.0000 C   0  0  0  0  0  0  0  0  0  0  0  0
    2.9238  -13.1441    0.0000 C   0  0  0  0  0  0  0  0  0  0  0  0
    2.2046  -12.7365    0.0000 C   0  0  0  0  0  0  0  0  0  0  0  0
    3.6445  -14.3750    0.0000 N   0  0  0  0  0  0  0  0  0  0  0  0
    4.3565  -13.9580    0.0000 C   0  0  0  0  0  0  0  0  0  0  0  0
    4.3495  -13.1333    0.0000 C   0  0  0  0  0  0  0  0  0  0  0  0
    3.6359  -12.7272    0.0000 C   0  0  0  0  0  0  0  0  0  0  0  0
    3.6288  -11.9026    0.0000 C   0  0  0  0  0  0  0  0  0  0  0  0
    4.3409  -11.4856    0.0000 C   0  0  0  0  0  0  0  0  0  0  0  0
    4.3374  -10.6589    0.0000 C   0  0  0  0  0  0  0  0  0  0  0  0
    3.6182  -10.2513    0.0000 C   0  0  0  0  0  0  0  0  0  0  0  0
    2.9061  -10.6681    0.0000 C   0  0  0  0  0  0  0  0  0  0  0  0
    2.9132  -11.4928    0.0000 C   0  0  0  0  0  0  0  0  0  0  0  0
    5.0192  -12.6509    0.0000 C   0  0  0  0  0  0  0  0  0  0  0  0
    5.8047  -12.9089    0.0000 C   0  0  0  0  0  0  0  0  0  0  0  0
    6.2936  -12.2444    0.0000 C   0  0  0  0  0  0  0  0  0  0  0  0
    5.8113  -11.5749    0.0000 N   0  0  0  0  0  0  0  0  0  0  0  0
    5.0261  -11.8274    0.0000 N   0  0  0  0  0  0  0  0  0  0  0  0
    7.1180  -12.2455    0.0000 C   0  0  0  0  0  0  0  0  0  0  0  0
    5.0722  -14.3678    0.0000 O   0  0  0  0  0  0  0  0  0  0  0  0
    0.7769  -12.7436    0.0000 Cl  0  0  0  0  0  0  0  0  0  0  0  0
    7.5279  -12.9616    0.0000 C   0  0  0  0  0  0  0  0  0  0  0  0
    8.3513  -12.9686    0.0000 C   0  0  0  0  0  0  0  0  0  0  0  0
    8.7683  -12.2569    0.0000 C   0  0  0  0  0  0  0  0  0  0  0  0
    8.3585  -11.5406    0.0000 C   0  0  0  0  0  0  0  0  0  0  0  0
    7.5350  -11.5338    0.0000 C   0  0  0  0  0  0  0  0  0  0  0  0
    6.1973  -10.8438    0.0000 C   0  0  0  0  0  0  0  0  0  0  0  0
    7.0234  -10.8155    0.0000 C   0  0  0  0  0  0  0  0  0  0  0  0
    5.7591  -10.1445    0.0000 O   0  0  0  0  0  0  0  0  0  0  0  0
    7.4058  -10.0862    0.0000 C   0  0  0  0  0  0  0  0  0  0  0  0
    8.2318  -10.0580    0.0000 C   0  0  0  0  0  0  0  0  0  0  0  0
    8.6179   -9.3268    0.0000 O   0  0  0  0  0  0  0  0  0  0  0  0
    8.6699  -10.7573    0.0000 O   0  0  0  0  0  0  0  0  0  0  0  0
    9.5905  -12.2652    0.0000 Br  0  0  0  0  0  0  0  0  0  0  0  0
  1  2  2  0  0  0  0
  2  3  1  0  0  0  0
  3  4  2  0  0  0  0
  4  5  1  0  0  0  0
  5  6  2  0  0  0  0
  6  1  1  0  0  0  0
  4  7  1  0  0  0  0
  7  8  1  0  0  0  0
  8  9  1  0  0  0  0
  9 10  2  0  0  0  0
 10  5  1  0  0  0  0
 10 11  1  0  0  0  0
 11 12  2  0  0  0  0
 12 13  1  0  0  0  0
 13 14  2  0  0  0  0
 14 15  1  0  0  0  0
 15 16  2  0  0  0  0
 16 11  1  0  0  0  0
  9 17  1  0  0  0  0
 17 18  1  0  0  0  0
 18 19  1  0  0  0  0
 19 20  1  0  0  0  0
 20 21  1  0  0  0  0
 21 17  2  0  0  0  0
 19 22  1  0  0  0  0
  8 23  2  0  0  0  0
  1 24  1  0  0  0  0
 22 25  2  0  0  0  0
 25 26  1  0  0  0  0
 26 27  2  0  0  0  0
 27 28  1  0  0  0  0
 28 29  2  0  0  0  0
 29 22  1  0  0  0  0
 20 30  1  0  0  0  0
 30 31  1  0  0  0  0
 30 32  2  0  0  0  0
 31 33  1  0  0  0  0
 33 34  1  0  0  0  0
 34 35  1  0  0  0  0
 34 36  2  0  0  0  0
 27 37  1  0  0  0  0
M  END
> <From>
www.bindingDB.org

> <BindingDB Reactant_set_id>
51293294

> <Ligand InChI>
InChI=1S/C28H21BrClN3O4/c29-18-8-6-16(7-9-18)23-15-22(32-33(23)24(34)12-13-25(35)36)27-26(17-4-2-1-3-5-17)20-14-19(30)10-11-21(20)31-28(27)37/h1-11,14,23H,12-13,15H2,(H,31,37)(H,35,36)

> <Ligand InChI Key>
XMGDSIFIWYIZOF-UHFFFAOYSA-N

> <BindingDB MonomerID>
50440092

> <BindingDB Ligand Name>
CHEMBL2426085

> <Target Name>
DNA repair protein RAD51 homolog 1

> <Target Source Organism According to Curator or DataSource>
Homo sapiens

> <Ki (nM)>


> <IC50 (nM)>


> <Kd (nM)>


> <EC50 (nM)>
 16000

> <kon (M-1-s-1)>


> <koff (s-1)>


> <pH>


> <Temp C>


> <Curation/DataSource>
ChEMBL

> <Article DOI>
10.1021/acs.jmedchem.9b01526

> <BindingDB Entry DOI>
10.7270/Q2SF30MF

> <PMID>
32037829

> <PubChem AID>


> <Patent Number>


> <Authors>
Bagnolini, G; Milano, D; Manerba, M; Schipani, F; Ortega, JA; Gioia, D; Falchi, F; Balboni, A; Farabegoli, F; De Franco, F; Robertson, J; Pellicciari, R; Pallavicini, I; Peri, S; Minucci, S; Girotto, S; Di Stefano, G; Roberti, M; Cavalli, A

> <Date of publication>
3/12/2020

> <Date in BindingDB>
2/25/2021

> <Institution>
Istituto Italiano di Tecnologia

> <Link to Ligand in BindingDB>
http://www.bindingdb.org/bind/chemsearch/marvin/MolStructure.jsp?monomerid=50440092

> <Link to Ligand-Target Pair in BindingDB>
http://www.bindingdb.org/jsp/dbsearch/PrimarySearch_ki.jsp?energyterm=kJ/mole&tag=pol&polymerid=4676&target=DNA+repair+protein+RAD51+homolog+1&column=ki&startPg=0&Increment=50&submit=Search

> <Link to Ligand-Target Pair in BindingDB>
http://www.bindingdb.org/jsp/dbsearch/PrimarySearch_ki.jsp?energyterm=kJ/mole&tag=r21&monomerid=50440092&enzyme=DNA+repair+protein+RAD51+homolog+1&column=ki&startPg=0&Increment=50&submit=Search

> <Ligand HET ID in PDB>


> <PDB ID(s) for Ligand-Target Complex>


> <PubChem CID of Ligand>
16806074

> <PubChem SID of Ligand>
175452409

> <ChEBI ID of Ligand>


> <ChEMBL ID of Ligand>
CHEMBL2426085

> <DrugBank ID of Ligand>


> <IUPHAR_GRAC ID of Ligand>


> <KEGG ID of Ligand>


> <ZINC ID of Ligand>
ZINC96283831

> <Number of Protein Chains in Target (bigger than 1 implies a multichain complex)>
1

> <BindingDB Target Chain Sequence>
MAMQMQLEANADTSVEEESFGPQPISRLEQCGINANDVKKLEEAGFHTVEAVAYAPKKELINIKGISEAKADKILAEAAKLVPMGFTTATEFHQRRSEIIQITTGSKELDKLLQGGIETGSITEMFGEFRTGKTQICHTLAVTCQLPIDRGGGEGKAMYIDTEGTFRPERLLAVAERYGLSGSDVLDNVAYARAFNTDHQTQLLYQASAMMVESRYALLIVDSATALYRTDYSGRGELSARQMHLARFLRMLLRLADEFGVAVVITNQVVAQVDGAAMFAADPKKPIGGNIIAHASTTRLYLRKGRGETRICKIYDSPCLPEAEAMFAINADGVGDAKD

> <PDB ID(s) of Target Chain>
1N0W,5JZC,5NP7,5NWL,8BQ2,8BR2,8BSC

> <UniProt (SwissProt) Recommended Name of Target Chain>
DNA repair protein RAD51 homolog 1

> <UniProt (SwissProt) Entry Name of Target Chain>
RAD51_HUMAN

> <UniProt (SwissProt) Primary ID of Target Chain>
Q06609

> <UniProt (SwissProt) Secondary ID(s) of Target Chain>
B0FXP0 B2R8T6 Q6FHX9 Q6ZNA8 Q9BV60

> <UniProt (SwissProt) Alternative ID(s) of Target Chain>


> <UniProt (TrEMBL) Submitted Name of Target Chain>


> <UniProt (TrEMBL) Entry Name of Target Chain>


> <UniProt (TrEMBL) Primary ID of Target Chain>


> <UniProt (TrEMBL) Secondary ID(s) of Target Chain>


> <UniProt (TrEMBL) Alternative ID(s) of Target Chain>


$$$$
 
     RDKit          2D

 34 38  0  0  0  0  0  0  0  0999 V2000
   29.3699   -4.1277    0.0000 C   0  0  0  0  0  0  0  0  0  0  0  0
   29.3687   -4.9556    0.0000 C   0  0  0  0  0  0  0  0  0  0  0  0
   30.0804   -5.3667    0.0000 C   0  0  0  0  0  0  0  0  0  0  0  0
   30.0786   -3.7126    0.0000 C   0  0  0  0  0  0  0  0  0  0  0  0
   30.7950   -4.1241    0.0000 C   0  0  0  0  0  0  0  0  0  0  0  0
   30.7939   -4.9531    0.0000 C   0  0  0  0  0  0  0  0  0  0  0  0
   31.5078   -5.3643    0.0000 N   0  0  0  0  0  0  0  0  0  0  0  0
   32.2275   -4.9551    0.0000 C   0  0  0  0  0  0  0  0  0  0  0  0
   32.2286   -4.1261    0.0000 C   0  0  0  0  0  0  0  0  0  0  0  0
   31.5101   -3.7062    0.0000 C   0  0  0  0  0  0  0  0  0  0  0  0
   31.5106   -2.8849    0.0000 C   0  0  0  0  0  0  0  0  0  0  0  0
   32.2278   -2.4748    0.0000 C   0  0  0  0  0  0  0  0  0  0  0  0
   32.2281   -1.6500    0.0000 C   0  0  0  0  0  0  0  0  0  0  0  0
   31.5121   -1.2343    0.0000 C   0  0  0  0  0  0  0  0  0  0  0  0
   30.7943   -1.6536    0.0000 C   0  0  0  0  0  0  0  0  0  0  0  0
   30.7974   -2.4770    0.0000 C   0  0  0  0  0  0  0  0  0  0  0  0
   32.9431   -3.7120    0.0000 C   0  0  0  0  0  0  0  0  0  0  0  0
   33.6968   -4.0520    0.0000 C   0  0  0  0  0  0  0  0  0  0  0  0
   34.2479   -3.4387    0.0000 C   0  0  0  0  0  0  0  0  0  0  0  0
   33.8389   -2.7222    0.0000 N   0  0  0  0  0  0  0  0  0  0  0  0
   33.0309   -2.8912    0.0000 N   0  0  0  0  0  0  0  0  0  0  0  0
   32.9419   -5.3678    0.0000 O   0  0  0  0  0  0  0  0  0  0  0  0
   34.1748   -1.9685    0.0000 C   0  0  0  0  0  0  0  0  0  0  0  0
   34.9960   -1.8846    0.0000 C   0  0  0  0  0  0  0  0  0  0  0  0
   33.6935   -1.2987    0.0000 O   0  0  0  0  0  0  0  0  0  0  0  0
   35.0713   -3.4349    0.0000 C   0  0  0  0  0  0  0  0  0  0  0  0
   35.4865   -4.1490    0.0000 C   0  0  0  0  0  0  0  0  0  0  0  0
   36.3091   -4.1454    0.0000 C   0  0  0  0  0  0  0  0  0  0  0  0
   36.7162   -3.4295    0.0000 C   0  0  0  0  0  0  0  0  0  0  0  0
   36.2989   -2.7154    0.0000 C   0  0  0  0  0  0  0  0  0  0  0  0
   35.4777   -2.7223    0.0000 C   0  0  0  0  0  0  0  0  0  0  0  0
   28.6575   -3.7188    0.0000 Cl  0  0  0  0  0  0  0  0  0  0  0  0
   37.5376   -3.4245    0.0000 F   0  0  0  0  0  0  0  0  0  0  0  0
   35.3322   -1.1351    0.0000 C   0  0  0  0  0  0  0  0  0  0  0  0
  1  2  2  0
  2  3  1  0
  3  6  2  0
  5  4  2  0
  4  1  1  0
  5  6  1  0
  5 10  1  0
  6  7  1  0
  7  8  1  0
  8  9  1  0
  9 10  2  0
 11 12  2  0
 12 13  1  0
 13 14  2  0
 14 15  1  0
 15 16  2  0
 16 11  1  0
 10 11  1  0
 17 18  1  0
 18 19  1  0
 19 20  1  0
 20 21  1  0
 21 17  2  0
  9 17  1  0
  8 22  2  0
 20 23  1  0
 23 24  1  0
 23 25  2  0
 19 26  1  0
 26 27  2  0
 27 28  1  0
 28 29  2  0
 29 30  1  0
 30 31  2  0
 31 26  1  0
  1 32  1  0
 29 33  1  0
 24 34  1  0
M  END
> <From>
www.bindingDB.org

> <BindingDB Reactant_set_id>
51293295

> <Ligand InChI>
InChI=1S/C27H21ClFN3O2/c1-2-24(33)32-23(16-8-11-19(29)12-9-16)15-22(31-32)26-25(17-6-4-3-5-7-17)20-14-18(28)10-13-21(20)30-27(26)34/h3-14,23H,2,15H2,1H3,(H,30,34)

> <Ligand InChI Key>
XKYOFCICKJJOFP-UHFFFAOYSA-N

> <BindingDB MonomerID>
50527111

> <BindingDB Ligand Name>
CHEMBL4555660

> <Target Name>
DNA repair protein RAD51 homolog 1

> <Target Source Organism According to Curator or DataSource>
Homo sapiens

> <Ki (nM)>


> <IC50 (nM)>


> <Kd (nM)>


> <EC50 (nM)>
 34000

> <kon (M-1-s-1)>


> <koff (s-1)>


> <pH>


> <Temp C>


> <Curation/DataSource>
ChEMBL

> <Article DOI>
10.1021/acs.jmedchem.9b01526

> <BindingDB Entry DOI>
10.7270/Q2SF30MF

> <PMID>
32037829

> <PubChem AID>


> <Patent Number>


> <Authors>
Bagnolini, G; Milano, D; Manerba, M; Schipani, F; Ortega, JA; Gioia, D; Falchi, F; Balboni, A; Farabegoli, F; De Franco, F; Robertson, J; Pellicciari, R; Pallavicini, I; Peri, S; Minucci, S; Girotto, S; Di Stefano, G; Roberti, M; Cavalli, A

> <Date of publication>
3/12/2020

> <Date in BindingDB>
2/25/2021

> <Institution>
Istituto Italiano di Tecnologia

> <Link to Ligand in BindingDB>
http://www.bindingdb.org/bind/chemsearch/marvin/MolStructure.jsp?monomerid=50527111

> <Link to Ligand-Target Pair in BindingDB>
http://www.bindingdb.org/jsp/dbsearch/PrimarySearch_ki.jsp?energyterm=kJ/mole&tag=pol&polymerid=4676&target=DNA+repair+protein+RAD51+homolog+1&column=ki&startPg=0&Increment=50&submit=Search

> <Link to Ligand-Target Pair in BindingDB>
http://www.bindingdb.org/jsp/dbsearch/PrimarySearch_ki.jsp?energyterm=kJ/mole&tag=r21&monomerid=50527111&enzyme=DNA+repair+protein+RAD51+homolog+1&column=ki&startPg=0&Increment=50&submit=Search

> <Ligand HET ID in PDB>


> <PDB ID(s) for Ligand-Target Complex>


> <PubChem CID of Ligand>
136084730

> <PubChem SID of Ligand>
440735693

> <ChEBI ID of Ligand>


> <ChEMBL ID of Ligand>


> <DrugBank ID of Ligand>


> <IUPHAR_GRAC ID of Ligand>


> <KEGG ID of Ligand>


> <ZINC ID of Ligand>


> <Number of Protein Chains in Target (bigger than 1 implies a multichain complex)>
1

> <BindingDB Target Chain Sequence>
MAMQMQLEANADTSVEEESFGPQPISRLEQCGINANDVKKLEEAGFHTVEAVAYAPKKELINIKGISEAKADKILAEAAKLVPMGFTTATEFHQRRSEIIQITTGSKELDKLLQGGIETGSITEMFGEFRTGKTQICHTLAVTCQLPIDRGGGEGKAMYIDTEGTFRPERLLAVAERYGLSGSDVLDNVAYARAFNTDHQTQLLYQASAMMVESRYALLIVDSATALYRTDYSGRGELSARQMHLARFLRMLLRLADEFGVAVVITNQVVAQVDGAAMFAADPKKPIGGNIIAHASTTRLYLRKGRGETRICKIYDSPCLPEAEAMFAINADGVGDAKD

> <PDB ID(s) of Target Chain>
1N0W,5JZC,5NP7,5NWL,8BQ2,8BR2,8BSC

> <UniProt (SwissProt) Recommended Name of Target Chain>
DNA repair protein RAD51 homolog 1

> <UniProt (SwissProt) Entry Name of Target Chain>
RAD51_HUMAN

> <UniProt (SwissProt) Primary ID of Target Chain>
Q06609

> <UniProt (SwissProt) Secondary ID(s) of Target Chain>
B0FXP0 B2R8T6 Q6FHX9 Q6ZNA8 Q9BV60

> <UniProt (SwissProt) Alternative ID(s) of Target Chain>


> <UniProt (TrEMBL) Submitted Name of Target Chain>


> <UniProt (TrEMBL) Entry Name of Target Chain>


> <UniProt (TrEMBL) Primary ID of Target Chain>


> <UniProt (TrEMBL) Secondary ID(s) of Target Chain>


> <UniProt (TrEMBL) Alternative ID(s) of Target Chain>


$$$$
 
     RDKit          2D

 47 53  0  0  0  0  0  0  0  0999 V2000
    1.2781  -15.8354    0.0000 C   0  0  0  0  0  0  0  0  0  0  0  0
    1.2769  -16.6643    0.0000 C   0  0  0  0  0  0  0  0  0  0  0  0
    1.9896  -17.0760    0.0000 C   0  0  0  0  0  0  0  0  0  0  0  0
    1.9877  -15.4197    0.0000 C   0  0  0  0  0  0  0  0  0  0  0  0
    2.7051  -15.8317    0.0000 C   0  0  0  0  0  0  0  0  0  0  0  0
    2.7040  -16.6618    0.0000 C   0  0  0  0  0  0  0  0  0  0  0  0
    3.4189  -17.0736    0.0000 N   0  0  0  0  0  0  0  0  0  0  0  0
    4.1396  -16.6638    0.0000 C   0  0  0  0  0  0  0  0  0  0  0  0
    4.1408  -15.8337    0.0000 C   0  0  0  0  0  0  0  0  0  0  0  0
    3.4212  -15.4132    0.0000 C   0  0  0  0  0  0  0  0  0  0  0  0
    3.4217  -14.5908    0.0000 C   0  0  0  0  0  0  0  0  0  0  0  0
    4.1399  -14.1802    0.0000 C   0  0  0  0  0  0  0  0  0  0  0  0
    4.1402  -13.3542    0.0000 C   0  0  0  0  0  0  0  0  0  0  0  0
    3.4232  -12.9380    0.0000 C   0  0  0  0  0  0  0  0  0  0  0  0
    2.7044  -13.3578    0.0000 C   0  0  0  0  0  0  0  0  0  0  0  0
    2.7075  -14.1824    0.0000 C   0  0  0  0  0  0  0  0  0  0  0  0
    4.8561  -15.4191    0.0000 C   0  0  0  0  0  0  0  0  0  0  0  0
    5.6109  -15.7595    0.0000 C   0  0  0  0  0  0  0  0  0  0  0  0
    6.1627  -15.1454    0.0000 C   0  0  0  0  0  0  0  0  0  0  0  0
    5.7531  -14.4280    0.0000 N   0  0  0  0  0  0  0  0  0  0  0  0
    4.9441  -14.5972    0.0000 N   0  0  0  0  0  0  0  0  0  0  0  0
    4.8549  -17.0771    0.0000 O   0  0  0  0  0  0  0  0  0  0  0  0
    6.0895  -13.6732    0.0000 C   0  0  0  0  0  0  0  0  0  0  0  0
    6.9118  -13.5891    0.0000 C   0  0  0  0  0  0  0  0  0  0  0  0
    5.6075  -13.0024    0.0000 O   0  0  0  0  0  0  0  0  0  0  0  0
    6.9872  -15.1416    0.0000 C   0  0  0  0  0  0  0  0  0  0  0  0
    0.5648  -15.4258    0.0000 Cl  0  0  0  0  0  0  0  0  0  0  0  0
    7.2485  -12.8387    0.0000 C   0  0  0  0  0  0  0  0  0  0  0  0
    8.0667  -12.7550    0.0000 C   0  0  0  0  0  0  0  0  0  0  0  0
    8.5483  -13.4219    0.0000 O   0  0  0  0  0  0  0  0  0  0  0  0
    8.4034  -12.0046    0.0000 O   0  0  0  0  0  0  0  0  0  0  0  0
    7.4008  -15.8561    0.0000 C   0  0  0  0  0  0  0  0  0  0  0  0
    8.2246  -15.8526    0.0000 C   0  0  0  0  0  0  0  0  0  0  0  0
    8.6343  -15.1361    0.0000 C   0  0  0  0  0  0  0  0  0  0  0  0
    8.2143  -14.4216    0.0000 C   0  0  0  0  0  0  0  0  0  0  0  0
    7.3920  -14.4287    0.0000 C   0  0  0  0  0  0  0  0  0  0  0  0
    9.4527  -15.1312    0.0000 C   0  0  0  0  0  0  0  0  0  0  0  0
    9.8676  -15.8427    0.0000 C   0  0  0  0  0  0  0  0  0  0  0  0
   10.6893  -15.8381    0.0000 C   0  0  0  0  0  0  0  0  0  0  0  0
    9.8568  -14.4187    0.0000 C   0  0  0  0  0  0  0  0  0  0  0  0
   10.6772  -14.4107    0.0000 C   0  0  0  0  0  0  0  0  0  0  0  0
   11.0941  -15.1226    0.0000 C   0  0  0  0  0  0  0  0  0  0  0  0
   11.9000  -14.9460    0.0000 N   0  0  0  0  0  0  0  0  0  0  0  0
   11.9811  -14.1250    0.0000 N   0  0  0  0  0  0  0  0  0  0  0  0
   11.2255  -13.7942    0.0000 C   0  0  0  0  0  0  0  0  0  0  0  0
   12.6909  -13.7093    0.0000 C   0  0  0  0  0  0  0  0  0  0  0  0
   13.4058  -14.1160    0.0000 C   0  0  0  0  0  0  0  0  0  0  0  0
  1  2  2  0
  2  3  1  0
  3  6  2  0
  5  4  2  0
  4  1  1  0
  5  6  1  0
  5 10  1  0
  6  7  1  0
  7  8  1  0
  8  9  1  0
  9 10  2  0
 11 12  2  0
 12 13  1  0
 13 14  2  0
 14 15  1  0
 15 16  2  0
 16 11  1  0
 10 11  1  0
 17 18  1  0
 18 19  1  0
 19 20  1  0
 20 21  1  0
 21 17  2  0
  9 17  1  0
  8 22  2  0
 20 23  1  0
 23 24  1  0
 23 25  2  0
 19 26  1  0
  1 27  1  0
 24 28  1  0
 28 29  1  0
 29 30  1  0
 29 31  2  0
 26 32  2  0
 32 33  1  0
 33 34  2  0
 34 35  1  0
 35 36  2  0
 36 26  1  0
 37 38  1  0
 38 39  2  0
 39 42  1  0
 41 40  1  0
 40 37  2  0
 34 37  1  0
 41 42  1  0
 42 43  2  0
 43 44  1  0
 44 45  1  0
 45 41  2  0
 44 46  1  0
 46 47  1  0
M  END
> <From>
www.bindingDB.org

> <BindingDB Reactant_set_id>
51293296

> <Ligand InChI>
InChI=1S/C37H30ClN5O4/c1-2-42-21-26-18-25(12-14-29(26)40-42)22-8-10-23(11-9-22)32-20-31(41-43(32)33(44)16-17-34(45)46)36-35(24-6-4-3-5-7-24)28-19-27(38)13-15-30(28)39-37(36)47/h3-15,18-19,21,32H,2,16-17,20H2,1H3,(H,39,47)(H,45,46)

> <Ligand InChI Key>
QQTUCSCYSCUQLX-UHFFFAOYSA-N

> <BindingDB MonomerID>
50527112

> <BindingDB Ligand Name>
CHEMBL4589515

> <Target Name>
DNA repair protein RAD51 homolog 1

> <Target Source Organism According to Curator or DataSource>
Homo sapiens

> <Ki (nM)>


> <IC50 (nM)>


> <Kd (nM)>


> <EC50 (nM)>
 17000

> <kon (M-1-s-1)>


> <koff (s-1)>


> <pH>


> <Temp C>


> <Curation/DataSource>
ChEMBL

> <Article DOI>
10.1021/acs.jmedchem.9b01526

> <BindingDB Entry DOI>
10.7270/Q2SF30MF

> <PMID>
32037829

> <PubChem AID>


> <Patent Number>


> <Authors>
Bagnolini, G; Milano, D; Manerba, M; Schipani, F; Ortega, JA; Gioia, D; Falchi, F; Balboni, A; Farabegoli, F; De Franco, F; Robertson, J; Pellicciari, R; Pallavicini, I; Peri, S; Minucci, S; Girotto, S; Di Stefano, G; Roberti, M; Cavalli, A

> <Date of publication>
3/12/2020

> <Date in BindingDB>
2/25/2021

> <Institution>
Istituto Italiano di Tecnologia

> <Link to Ligand in BindingDB>
http://www.bindingdb.org/bind/chemsearch/marvin/MolStructure.jsp?monomerid=50527112

> <Link to Ligand-Target Pair in BindingDB>
http://www.bindingdb.org/jsp/dbsearch/PrimarySearch_ki.jsp?energyterm=kJ/mole&tag=pol&polymerid=4676&target=DNA+repair+protein+RAD51+homolog+1&column=ki&startPg=0&Increment=50&submit=Search

> <Link to Ligand-Target Pair in BindingDB>
http://www.bindingdb.org/jsp/dbsearch/PrimarySearch_ki.jsp?energyterm=kJ/mole&tag=r21&monomerid=50527112&enzyme=DNA+repair+protein+RAD51+homolog+1&column=ki&startPg=0&Increment=50&submit=Search

> <Ligand HET ID in PDB>


> <PDB ID(s) for Ligand-Target Complex>


> <PubChem CID of Ligand>
155567965

> <PubChem SID of Ligand>
440735694

> <ChEBI ID of Ligand>


> <ChEMBL ID of Ligand>


> <DrugBank ID of Ligand>


> <IUPHAR_GRAC ID of Ligand>


> <KEGG ID of Ligand>


> <ZINC ID of Ligand>


> <Number of Protein Chains in Target (bigger than 1 implies a multichain complex)>
1

> <BindingDB Target Chain Sequence>
MAMQMQLEANADTSVEEESFGPQPISRLEQCGINANDVKKLEEAGFHTVEAVAYAPKKELINIKGISEAKADKILAEAAKLVPMGFTTATEFHQRRSEIIQITTGSKELDKLLQGGIETGSITEMFGEFRTGKTQICHTLAVTCQLPIDRGGGEGKAMYIDTEGTFRPERLLAVAERYGLSGSDVLDNVAYARAFNTDHQTQLLYQASAMMVESRYALLIVDSATALYRTDYSGRGELSARQMHLARFLRMLLRLADEFGVAVVITNQVVAQVDGAAMFAADPKKPIGGNIIAHASTTRLYLRKGRGETRICKIYDSPCLPEAEAMFAINADGVGDAKD

> <PDB ID(s) of Target Chain>
1N0W,5JZC,5NP7,5NWL,8BQ2,8BR2,8BSC

> <UniProt (SwissProt) Recommended Name of Target Chain>
DNA repair protein RAD51 homolog 1

> <UniProt (SwissProt) Entry Name of Target Chain>
RAD51_HUMAN

> <UniProt (SwissProt) Primary ID of Target Chain>
Q06609

> <UniProt (SwissProt) Secondary ID(s) of Target Chain>
B0FXP0 B2R8T6 Q6FHX9 Q6ZNA8 Q9BV60

> <UniProt (SwissProt) Alternative ID(s) of Target Chain>


> <UniProt (TrEMBL) Submitted Name of Target Chain>


> <UniProt (TrEMBL) Entry Name of Target Chain>


> <UniProt (TrEMBL) Primary ID of Target Chain>


> <UniProt (TrEMBL) Secondary ID(s) of Target Chain>


> <UniProt (TrEMBL) Alternative ID(s) of Target Chain>


$$$$
 
     RDKit          2D

 44 49  0  0  0  0  0  0  0  0999 V2000
   16.4879  -15.3847    0.0000 C   0  0  0  0  0  0  0  0  0  0  0  0
   16.4867  -16.2134    0.0000 C   0  0  0  0  0  0  0  0  0  0  0  0
   17.1991  -16.6249    0.0000 C   0  0  0  0  0  0  0  0  0  0  0  0
   17.1973  -14.9692    0.0000 C   0  0  0  0  0  0  0  0  0  0  0  0
   17.9144  -15.3810    0.0000 C   0  0  0  0  0  0  0  0  0  0  0  0
   17.9132  -16.2109    0.0000 C   0  0  0  0  0  0  0  0  0  0  0  0
   18.6278  -16.6225    0.0000 N   0  0  0  0  0  0  0  0  0  0  0  0
   19.3482  -16.2129    0.0000 C   0  0  0  0  0  0  0  0  0  0  0  0
   19.3494  -15.3830    0.0000 C   0  0  0  0  0  0  0  0  0  0  0  0
   18.6302  -14.9628    0.0000 C   0  0  0  0  0  0  0  0  0  0  0  0
   18.6307  -14.1407    0.0000 C   0  0  0  0  0  0  0  0  0  0  0  0
   19.3485  -13.7302    0.0000 C   0  0  0  0  0  0  0  0  0  0  0  0
   19.3489  -12.9046    0.0000 C   0  0  0  0  0  0  0  0  0  0  0  0
   18.6322  -12.4886    0.0000 C   0  0  0  0  0  0  0  0  0  0  0  0
   17.9136  -12.9082    0.0000 C   0  0  0  0  0  0  0  0  0  0  0  0
   17.9167  -13.7324    0.0000 C   0  0  0  0  0  0  0  0  0  0  0  0
   20.0645  -14.9686    0.0000 C   0  0  0  0  0  0  0  0  0  0  0  0
   20.8189  -15.3089    0.0000 C   0  0  0  0  0  0  0  0  0  0  0  0
   21.3706  -14.6951    0.0000 C   0  0  0  0  0  0  0  0  0  0  0  0
   20.9612  -13.9779    0.0000 N   0  0  0  0  0  0  0  0  0  0  0  0
   20.1525  -14.1470    0.0000 N   0  0  0  0  0  0  0  0  0  0  0  0
   20.0632  -16.6260    0.0000 O   0  0  0  0  0  0  0  0  0  0  0  0
   21.2973  -13.2234    0.0000 C   0  0  0  0  0  0  0  0  0  0  0  0
   22.1193  -13.1394    0.0000 C   0  0  0  0  0  0  0  0  0  0  0  0
   20.8156  -12.5530    0.0000 O   0  0  0  0  0  0  0  0  0  0  0  0
   22.1947  -14.6913    0.0000 C   0  0  0  0  0  0  0  0  0  0  0  0
   15.7748  -14.9754    0.0000 Cl  0  0  0  0  0  0  0  0  0  0  0  0
   22.4560  -12.3893    0.0000 C   0  0  0  0  0  0  0  0  0  0  0  0
   23.2738  -12.3057    0.0000 C   0  0  0  0  0  0  0  0  0  0  0  0
   23.7553  -12.9722    0.0000 O   0  0  0  0  0  0  0  0  0  0  0  0
   23.6104  -11.5555    0.0000 O   0  0  0  0  0  0  0  0  0  0  0  0
   22.6083  -15.4054    0.0000 C   0  0  0  0  0  0  0  0  0  0  0  0
   23.4316  -15.4020    0.0000 C   0  0  0  0  0  0  0  0  0  0  0  0
   23.8412  -14.6858    0.0000 C   0  0  0  0  0  0  0  0  0  0  0  0
   23.4214  -13.9716    0.0000 C   0  0  0  0  0  0  0  0  0  0  0  0
   22.5993  -13.9786    0.0000 C   0  0  0  0  0  0  0  0  0  0  0  0
   24.6592  -14.6809    0.0000 C   0  0  0  0  0  0  0  0  0  0  0  0
   25.1445  -15.3366    0.0000 C   0  0  0  0  0  0  0  0  0  0  0  0
   25.9210  -15.0791    0.0000 N   0  0  0  0  0  0  0  0  0  0  0  0
   25.9161  -14.2609    0.0000 N   0  0  0  0  0  0  0  0  0  0  0  0
   25.1365  -14.0129    0.0000 C   0  0  0  0  0  0  0  0  0  0  0  0
   26.5783  -13.7736    0.0000 C   0  0  0  0  0  0  0  0  0  0  0  0
   27.3314  -14.1035    0.0000 C   0  0  0  0  0  0  0  0  0  0  0  0
   27.9936  -13.6161    0.0000 C   0  0  0  0  0  0  0  0  0  0  0  0
  1  2  2  0
  2  3  1  0
  3  6  2  0
  5  4  2  0
  4  1  1  0
  5  6  1  0
  5 10  1  0
  6  7  1  0
  7  8  1  0
  8  9  1  0
  9 10  2  0
 11 12  2  0
 12 13  1  0
 13 14  2  0
 14 15  1  0
 15 16  2  0
 16 11  1  0
 10 11  1  0
 17 18  1  0
 18 19  1  0
 19 20  1  0
 20 21  1  0
 21 17  2  0
  9 17  1  0
  8 22  2  0
 20 23  1  0
 23 24  1  0
 23 25  2  0
 19 26  1  0
  1 27  1  0
 24 28  1  0
 28 29  1  0
 29 30  1  0
 29 31  2  0
 26 32  2  0
 32 33  1  0
 33 34  2  0
 34 35  1  0
 35 36  2  0
 36 26  1  0
 34 37  1  0
 37 38  1  0
 38 39  2  0
 39 40  1  0
 40 41  1  0
 41 37  2  0
 40 42  1  0
 42 43  1  0
 43 44  1  0
M  END
> <From>
www.bindingDB.org

> <BindingDB Reactant_set_id>
51293297

> <Ligand InChI>
InChI=1S/C34H30ClN5O4/c1-2-16-39-20-24(19-36-39)21-8-10-22(11-9-21)29-18-28(38-40(29)30(41)14-15-31(42)43)33-32(23-6-4-3-5-7-23)26-17-25(35)12-13-27(26)37-34(33)44/h3-13,17,19-20,29H,2,14-16,18H2,1H3,(H,37,44)(H,42,43)

> <Ligand InChI Key>
XLKWKWLUPBFPPW-UHFFFAOYSA-N

> <BindingDB MonomerID>
50527113

> <BindingDB Ligand Name>
CHEMBL4593903

> <Target Name>
DNA repair protein RAD51 homolog 1

> <Target Source Organism According to Curator or DataSource>
Homo sapiens

> <Ki (nM)>


> <IC50 (nM)>


> <Kd (nM)>


> <EC50 (nM)>
 65000

> <kon (M-1-s-1)>


> <koff (s-1)>


> <pH>


> <Temp C>


> <Curation/DataSource>
ChEMBL

> <Article DOI>
10.1021/acs.jmedchem.9b01526

> <BindingDB Entry DOI>
10.7270/Q2SF30MF

> <PMID>
32037829

> <PubChem AID>


> <Patent Number>


> <Authors>
Bagnolini, G; Milano, D; Manerba, M; Schipani, F; Ortega, JA; Gioia, D; Falchi, F; Balboni, A; Farabegoli, F; De Franco, F; Robertson, J; Pellicciari, R; Pallavicini, I; Peri, S; Minucci, S; Girotto, S; Di Stefano, G; Roberti, M; Cavalli, A

> <Date of publication>
3/12/2020

> <Date in BindingDB>
2/25/2021

> <Institution>
Istituto Italiano di Tecnologia

> <Link to Ligand in BindingDB>
http://www.bindingdb.org/bind/chemsearch/marvin/MolStructure.jsp?monomerid=50527113

> <Link to Ligand-Target Pair in BindingDB>
http://www.bindingdb.org/jsp/dbsearch/PrimarySearch_ki.jsp?energyterm=kJ/mole&tag=pol&polymerid=4676&target=DNA+repair+protein+RAD51+homolog+1&column=ki&startPg=0&Increment=50&submit=Search

> <Link to Ligand-Target Pair in BindingDB>
http://www.bindingdb.org/jsp/dbsearch/PrimarySearch_ki.jsp?energyterm=kJ/mole&tag=r21&monomerid=50527113&enzyme=DNA+repair+protein+RAD51+homolog+1&column=ki&startPg=0&Increment=50&submit=Search

> <Ligand HET ID in PDB>


> <PDB ID(s) for Ligand-Target Complex>


> <PubChem CID of Ligand>
155569452

> <PubChem SID of Ligand>
440735695

> <ChEBI ID of Ligand>


> <ChEMBL ID of Ligand>


> <DrugBank ID of Ligand>


> <IUPHAR_GRAC ID of Ligand>


> <KEGG ID of Ligand>


> <ZINC ID of Ligand>


> <Number of Protein Chains in Target (bigger than 1 implies a multichain complex)>
1

> <BindingDB Target Chain Sequence>
MAMQMQLEANADTSVEEESFGPQPISRLEQCGINANDVKKLEEAGFHTVEAVAYAPKKELINIKGISEAKADKILAEAAKLVPMGFTTATEFHQRRSEIIQITTGSKELDKLLQGGIETGSITEMFGEFRTGKTQICHTLAVTCQLPIDRGGGEGKAMYIDTEGTFRPERLLAVAERYGLSGSDVLDNVAYARAFNTDHQTQLLYQASAMMVESRYALLIVDSATALYRTDYSGRGELSARQMHLARFLRMLLRLADEFGVAVVITNQVVAQVDGAAMFAADPKKPIGGNIIAHASTTRLYLRKGRGETRICKIYDSPCLPEAEAMFAINADGVGDAKD

> <PDB ID(s) of Target Chain>
1N0W,5JZC,5NP7,5NWL,8BQ2,8BR2,8BSC

> <UniProt (SwissProt) Recommended Name of Target Chain>
DNA repair protein RAD51 homolog 1

> <UniProt (SwissProt) Entry Name of Target Chain>
RAD51_HUMAN

> <UniProt (SwissProt) Primary ID of Target Chain>
Q06609

> <UniProt (SwissProt) Secondary ID(s) of Target Chain>
B0FXP0 B2R8T6 Q6FHX9 Q6ZNA8 Q9BV60

> <UniProt (SwissProt) Alternative ID(s) of Target Chain>


> <UniProt (TrEMBL) Submitted Name of Target Chain>


> <UniProt (TrEMBL) Entry Name of Target Chain>


> <UniProt (TrEMBL) Primary ID of Target Chain>


> <UniProt (TrEMBL) Secondary ID(s) of Target Chain>


> <UniProt (TrEMBL) Alternative ID(s) of Target Chain>


$$$$
 
     RDKit          2D

 35 39  0  0  0  0  0  0  0  0999 V2000
   15.2120  -25.8204    0.0000 C   0  0  0  0  0  0  0  0  0  0  0  0
   15.2109  -26.6486    0.0000 C   0  0  0  0  0  0  0  0  0  0  0  0
   15.9227  -27.0598    0.0000 C   0  0  0  0  0  0  0  0  0  0  0  0
   15.9209  -25.4052    0.0000 C   0  0  0  0  0  0  0  0  0  0  0  0
   16.6376  -25.8168    0.0000 C   0  0  0  0  0  0  0  0  0  0  0  0
   16.6364  -26.6460    0.0000 C   0  0  0  0  0  0  0  0  0  0  0  0
   17.3506  -27.0574    0.0000 N   0  0  0  0  0  0  0  0  0  0  0  0
   18.0706  -26.6480    0.0000 C   0  0  0  0  0  0  0  0  0  0  0  0
   18.0718  -25.8188    0.0000 C   0  0  0  0  0  0  0  0  0  0  0  0
   17.3530  -25.3988    0.0000 C   0  0  0  0  0  0  0  0  0  0  0  0
   17.3535  -24.5772    0.0000 C   0  0  0  0  0  0  0  0  0  0  0  0
   18.0709  -24.1669    0.0000 C   0  0  0  0  0  0  0  0  0  0  0  0
   18.0713  -23.3419    0.0000 C   0  0  0  0  0  0  0  0  0  0  0  0
   17.3550  -22.9260    0.0000 C   0  0  0  0  0  0  0  0  0  0  0  0
   16.6368  -23.3454    0.0000 C   0  0  0  0  0  0  0  0  0  0  0  0
   16.6400  -24.1691    0.0000 C   0  0  0  0  0  0  0  0  0  0  0  0
   18.7864  -25.4046    0.0000 C   0  0  0  0  0  0  0  0  0  0  0  0
   19.5404  -25.7447    0.0000 C   0  0  0  0  0  0  0  0  0  0  0  0
   20.0917  -25.1313    0.0000 C   0  0  0  0  0  0  0  0  0  0  0  0
   19.6826  -24.4145    0.0000 N   0  0  0  0  0  0  0  0  0  0  0  0
   18.8743  -24.5835    0.0000 N   0  0  0  0  0  0  0  0  0  0  0  0
   18.7852  -27.0609    0.0000 O   0  0  0  0  0  0  0  0  0  0  0  0
   20.0185  -23.6605    0.0000 C   0  0  0  0  0  0  0  0  0  0  0  0
   20.8400  -23.5765    0.0000 C   0  0  0  0  0  0  0  0  0  0  0  0
   19.5371  -22.9904    0.0000 O   0  0  0  0  0  0  0  0  0  0  0  0
   20.9153  -25.1275    0.0000 C   0  0  0  0  0  0  0  0  0  0  0  0
   14.4994  -25.4113    0.0000 Cl  0  0  0  0  0  0  0  0  0  0  0  0
   21.1764  -22.8268    0.0000 C   0  0  0  0  0  0  0  0  0  0  0  0
   21.3286  -25.8411    0.0000 C   0  0  0  0  0  0  0  0  0  0  0  0
   22.1514  -25.8376    0.0000 C   0  0  0  0  0  0  0  0  0  0  0  0
   22.5608  -25.1219    0.0000 C   0  0  0  0  0  0  0  0  0  0  0  0
   22.1413  -24.4082    0.0000 C   0  0  0  0  0  0  0  0  0  0  0  0
   21.3197  -24.4152    0.0000 C   0  0  0  0  0  0  0  0  0  0  0  0
   23.3824  -25.1170    0.0000 O   0  0  0  0  0  0  0  0  0  0  0  0
   23.7975  -25.8262    0.0000 C   0  0  0  0  0  0  0  0  0  0  0  0
  1  2  2  0
  2  3  1  0
  3  6  2  0
  5  4  2  0
  4  1  1  0
  5  6  1  0
  5 10  1  0
  6  7  1  0
  7  8  1  0
  8  9  1  0
  9 10  2  0
 11 12  2  0
 12 13  1  0
 13 14  2  0
 14 15  1  0
 15 16  2  0
 16 11  1  0
 10 11  1  0
 17 18  1  0
 18 19  1  0
 19 20  1  0
 20 21  1  0
 21 17  2  0
  9 17  1  0
  8 22  2  0
 20 23  1  0
 23 24  1  0
 23 25  2  0
 19 26  1  0
  1 27  1  0
 24 28  1  0
 26 29  2  0
 29 30  1  0
 30 31  2  0
 31 32  1  0
 32 33  2  0
 33 26  1  0
 31 34  1  0
 34 35  1  0
M  END
> <From>
www.bindingDB.org

> <BindingDB Reactant_set_id>
51293298

> <Ligand InChI>
InChI=1S/C28H24ClN3O3/c1-3-25(33)32-24(17-9-12-20(35-2)13-10-17)16-23(31-32)27-26(18-7-5-4-6-8-18)21-15-19(29)11-14-22(21)30-28(27)34/h4-15,24H,3,16H2,1-2H3,(H,30,34)

> <Ligand InChI Key>
LAVOKBSCOSIGER-UHFFFAOYSA-N

> <BindingDB MonomerID>
50527107

> <BindingDB Ligand Name>
CHEMBL4450955

> <Target Name>
DNA repair protein RAD51 homolog 1

> <Target Source Organism According to Curator or DataSource>
Homo sapiens

> <Ki (nM)>


> <IC50 (nM)>


> <Kd (nM)>


> <EC50 (nM)>
 19000

> <kon (M-1-s-1)>


> <koff (s-1)>


> <pH>


> <Temp C>


> <Curation/DataSource>
ChEMBL

> <Article DOI>
10.1021/acs.jmedchem.9b01526

> <BindingDB Entry DOI>
10.7270/Q2SF30MF

> <PMID>
32037829

> <PubChem AID>


> <Patent Number>


> <Authors>
Bagnolini, G; Milano, D; Manerba, M; Schipani, F; Ortega, JA; Gioia, D; Falchi, F; Balboni, A; Farabegoli, F; De Franco, F; Robertson, J; Pellicciari, R; Pallavicini, I; Peri, S; Minucci, S; Girotto, S; Di Stefano, G; Roberti, M; Cavalli, A

> <Date of publication>
3/12/2020

> <Date in BindingDB>
2/25/2021

> <Institution>
Istituto Italiano di Tecnologia

> <Link to Ligand in BindingDB>
http://www.bindingdb.org/bind/chemsearch/marvin/MolStructure.jsp?monomerid=50527107

> <Link to Ligand-Target Pair in BindingDB>
http://www.bindingdb.org/jsp/dbsearch/PrimarySearch_ki.jsp?energyterm=kJ/mole&tag=pol&polymerid=4676&target=DNA+repair+protein+RAD51+homolog+1&column=ki&startPg=0&Increment=50&submit=Search

> <Link to Ligand-Target Pair in BindingDB>
http://www.bindingdb.org/jsp/dbsearch/PrimarySearch_ki.jsp?energyterm=kJ/mole&tag=r21&monomerid=50527107&enzyme=DNA+repair+protein+RAD51+homolog+1&column=ki&startPg=0&Increment=50&submit=Search

> <Ligand HET ID in PDB>


> <PDB ID(s) for Ligand-Target Complex>


> <PubChem CID of Ligand>
4246127

> <PubChem SID of Ligand>
440735689

> <ChEBI ID of Ligand>


> <ChEMBL ID of Ligand>


> <DrugBank ID of Ligand>


> <IUPHAR_GRAC ID of Ligand>


> <KEGG ID of Ligand>


> <ZINC ID of Ligand>


> <Number of Protein Chains in Target (bigger than 1 implies a multichain complex)>
1

> <BindingDB Target Chain Sequence>
MAMQMQLEANADTSVEEESFGPQPISRLEQCGINANDVKKLEEAGFHTVEAVAYAPKKELINIKGISEAKADKILAEAAKLVPMGFTTATEFHQRRSEIIQITTGSKELDKLLQGGIETGSITEMFGEFRTGKTQICHTLAVTCQLPIDRGGGEGKAMYIDTEGTFRPERLLAVAERYGLSGSDVLDNVAYARAFNTDHQTQLLYQASAMMVESRYALLIVDSATALYRTDYSGRGELSARQMHLARFLRMLLRLADEFGVAVVITNQVVAQVDGAAMFAADPKKPIGGNIIAHASTTRLYLRKGRGETRICKIYDSPCLPEAEAMFAINADGVGDAKD

> <PDB ID(s) of Target Chain>
1N0W,5JZC,5NP7,5NWL,8BQ2,8BR2,8BSC

> <UniProt (SwissProt) Recommended Name of Target Chain>
DNA repair protein RAD51 homolog 1

> <UniProt (SwissProt) Entry Name of Target Chain>
RAD51_HUMAN

> <UniProt (SwissProt) Primary ID of Target Chain>
Q06609

> <UniProt (SwissProt) Secondary ID(s) of Target Chain>
B0FXP0 B2R8T6 Q6FHX9 Q6ZNA8 Q9BV60

> <UniProt (SwissProt) Alternative ID(s) of Target Chain>


> <UniProt (TrEMBL) Submitted Name of Target Chain>


> <UniProt (TrEMBL) Entry Name of Target Chain>


> <UniProt (TrEMBL) Primary ID of Target Chain>


> <UniProt (TrEMBL) Secondary ID(s) of Target Chain>


> <UniProt (TrEMBL) Alternative ID(s) of Target Chain>


$$$$
 
     RDKit          2D

 36 40  0  0  0  0  0  0  0  0999 V2000
   28.8791   -3.8673    0.0000 C   0  0  0  0  0  0  0  0  0  0  0  0
   28.8779   -4.6954    0.0000 C   0  0  0  0  0  0  0  0  0  0  0  0
   29.5898   -5.1066    0.0000 C   0  0  0  0  0  0  0  0  0  0  0  0
   29.5880   -3.4520    0.0000 C   0  0  0  0  0  0  0  0  0  0  0  0
   30.3047   -3.8636    0.0000 C   0  0  0  0  0  0  0  0  0  0  0  0
   30.3034   -4.6929    0.0000 C   0  0  0  0  0  0  0  0  0  0  0  0
   31.0176   -5.1042    0.0000 N   0  0  0  0  0  0  0  0  0  0  0  0
   31.7374   -4.6949    0.0000 C   0  0  0  0  0  0  0  0  0  0  0  0
   31.7387   -3.8656    0.0000 C   0  0  0  0  0  0  0  0  0  0  0  0
   31.0199   -3.4457    0.0000 C   0  0  0  0  0  0  0  0  0  0  0  0
   31.0204   -2.6241    0.0000 C   0  0  0  0  0  0  0  0  0  0  0  0
   31.7377   -2.2140    0.0000 C   0  0  0  0  0  0  0  0  0  0  0  0
   31.7381   -1.3890    0.0000 C   0  0  0  0  0  0  0  0  0  0  0  0
   31.0219   -0.9732    0.0000 C   0  0  0  0  0  0  0  0  0  0  0  0
   30.3038   -1.3926    0.0000 C   0  0  0  0  0  0  0  0  0  0  0  0
   30.3070   -2.2162    0.0000 C   0  0  0  0  0  0  0  0  0  0  0  0
   32.4532   -3.4515    0.0000 C   0  0  0  0  0  0  0  0  0  0  0  0
   33.2071   -3.7916    0.0000 C   0  0  0  0  0  0  0  0  0  0  0  0
   33.7584   -3.1782    0.0000 C   0  0  0  0  0  0  0  0  0  0  0  0
   33.3493   -2.4615    0.0000 N   0  0  0  0  0  0  0  0  0  0  0  0
   32.5412   -2.6304    0.0000 N   0  0  0  0  0  0  0  0  0  0  0  0
   32.4520   -5.1077    0.0000 O   0  0  0  0  0  0  0  0  0  0  0  0
   33.6852   -1.7076    0.0000 C   0  0  0  0  0  0  0  0  0  0  0  0
   34.5066   -1.6236    0.0000 C   0  0  0  0  0  0  0  0  0  0  0  0
   33.2038   -1.0376    0.0000 O   0  0  0  0  0  0  0  0  0  0  0  0
   34.5819   -3.1743    0.0000 C   0  0  0  0  0  0  0  0  0  0  0  0
   34.9972   -3.8886    0.0000 C   0  0  0  0  0  0  0  0  0  0  0  0
   35.8201   -3.8851    0.0000 C   0  0  0  0  0  0  0  0  0  0  0  0
   36.2272   -3.1688    0.0000 C   0  0  0  0  0  0  0  0  0  0  0  0
   35.8098   -2.4547    0.0000 C   0  0  0  0  0  0  0  0  0  0  0  0
   34.9884   -2.4616    0.0000 C   0  0  0  0  0  0  0  0  0  0  0  0
   28.1666   -3.4583    0.0000 Cl  0  0  0  0  0  0  0  0  0  0  0  0
   37.0489   -3.1640    0.0000 C   0  0  0  0  0  0  0  0  0  0  0  0
   37.4639   -3.8730    0.0000 C   0  0  0  0  0  0  0  0  0  0  0  0
   37.4554   -2.4499    0.0000 C   0  0  0  0  0  0  0  0  0  0  0  0
   37.8683   -3.1619    0.0000 C   0  0  0  0  0  0  0  0  0  0  0  0
  1  2  2  0
  2  3  1  0
  3  6  2  0
  5  4  2  0
  4  1  1  0
  5  6  1  0
  5 10  1  0
  6  7  1  0
  7  8  1  0
  8  9  1  0
  9 10  2  0
 11 12  2  0
 12 13  1  0
 13 14  2  0
 14 15  1  0
 15 16  2  0
 16 11  1  0
 10 11  1  0
 17 18  1  0
 18 19  1  0
 19 20  1  0
 20 21  1  0
 21 17  2  0
  9 17  1  0
  8 22  2  0
 20 23  1  0
 23 24  1  0
 23 25  2  0
 19 26  1  0
 26 27  2  0
 27 28  1  0
 28 29  2  0
 29 30  1  0
 30 31  2  0
 31 26  1  0
  1 32  1  0
 29 33  1  0
 33 34  1  0
 33 35  1  0
 33 36  1  0
M  END
> <From>
www.bindingDB.org

> <BindingDB Reactant_set_id>
51293299

> <Ligand InChI>
InChI=1S/C30H28ClN3O2/c1-18(35)34-26(19-10-12-21(13-11-19)30(2,3)4)17-25(33-34)28-27(20-8-6-5-7-9-20)23-16-22(31)14-15-24(23)32-29(28)36/h5-16,26H,17H2,1-4H3,(H,32,36)

> <Ligand InChI Key>
VUVWSNUZVPGUER-UHFFFAOYSA-N

> <BindingDB MonomerID>
50527114

> <BindingDB Ligand Name>
CHEMBL4572566

> <Target Name>
DNA repair protein RAD51 homolog 1

> <Target Source Organism According to Curator or DataSource>
Homo sapiens

> <Ki (nM)>


> <IC50 (nM)>


> <Kd (nM)>


> <EC50 (nM)>
 15000

> <kon (M-1-s-1)>


> <koff (s-1)>


> <pH>


> <Temp C>


> <Curation/DataSource>
ChEMBL

> <Article DOI>
10.1021/acs.jmedchem.9b01526

> <BindingDB Entry DOI>
10.7270/Q2SF30MF

> <PMID>
32037829

> <PubChem AID>


> <Patent Number>


> <Authors>
Bagnolini, G; Milano, D; Manerba, M; Schipani, F; Ortega, JA; Gioia, D; Falchi, F; Balboni, A; Farabegoli, F; De Franco, F; Robertson, J; Pellicciari, R; Pallavicini, I; Peri, S; Minucci, S; Girotto, S; Di Stefano, G; Roberti, M; Cavalli, A

> <Date of publication>
3/12/2020

> <Date in BindingDB>
2/25/2021

> <Institution>
Istituto Italiano di Tecnologia

> <Link to Ligand in BindingDB>
http://www.bindingdb.org/bind/chemsearch/marvin/MolStructure.jsp?monomerid=50527114

> <Link to Ligand-Target Pair in BindingDB>
http://www.bindingdb.org/jsp/dbsearch/PrimarySearch_ki.jsp?energyterm=kJ/mole&tag=pol&polymerid=4676&target=DNA+repair+protein+RAD51+homolog+1&column=ki&startPg=0&Increment=50&submit=Search

> <Link to Ligand-Target Pair in BindingDB>
http://www.bindingdb.org/jsp/dbsearch/PrimarySearch_ki.jsp?energyterm=kJ/mole&tag=r21&monomerid=50527114&enzyme=DNA+repair+protein+RAD51+homolog+1&column=ki&startPg=0&Increment=50&submit=Search

> <Ligand HET ID in PDB>


> <PDB ID(s) for Ligand-Target Complex>


> <PubChem CID of Ligand>
155563759

> <PubChem SID of Ligand>
440735696

> <ChEBI ID of Ligand>


> <ChEMBL ID of Ligand>


> <DrugBank ID of Ligand>


> <IUPHAR_GRAC ID of Ligand>


> <KEGG ID of Ligand>


> <ZINC ID of Ligand>


> <Number of Protein Chains in Target (bigger than 1 implies a multichain complex)>
1

> <BindingDB Target Chain Sequence>
MAMQMQLEANADTSVEEESFGPQPISRLEQCGINANDVKKLEEAGFHTVEAVAYAPKKELINIKGISEAKADKILAEAAKLVPMGFTTATEFHQRRSEIIQITTGSKELDKLLQGGIETGSITEMFGEFRTGKTQICHTLAVTCQLPIDRGGGEGKAMYIDTEGTFRPERLLAVAERYGLSGSDVLDNVAYARAFNTDHQTQLLYQASAMMVESRYALLIVDSATALYRTDYSGRGELSARQMHLARFLRMLLRLADEFGVAVVITNQVVAQVDGAAMFAADPKKPIGGNIIAHASTTRLYLRKGRGETRICKIYDSPCLPEAEAMFAINADGVGDAKD

> <PDB ID(s) of Target Chain>
1N0W,5JZC,5NP7,5NWL,8BQ2,8BR2,8BSC

> <UniProt (SwissProt) Recommended Name of Target Chain>
DNA repair protein RAD51 homolog 1

> <UniProt (SwissProt) Entry Name of Target Chain>
RAD51_HUMAN

> <UniProt (SwissProt) Primary ID of Target Chain>
Q06609

> <UniProt (SwissProt) Secondary ID(s) of Target Chain>
B0FXP0 B2R8T6 Q6FHX9 Q6ZNA8 Q9BV60

> <UniProt (SwissProt) Alternative ID(s) of Target Chain>


> <UniProt (TrEMBL) Submitted Name of Target Chain>


> <UniProt (TrEMBL) Entry Name of Target Chain>


> <UniProt (TrEMBL) Primary ID of Target Chain>


> <UniProt (TrEMBL) Secondary ID(s) of Target Chain>


> <UniProt (TrEMBL) Alternative ID(s) of Target Chain>


$$$$
 
     RDKit          2D

 39 44  0  0  0  0  0  0  0  0999 V2000
   28.6051  -12.1265    0.0000 C   0  0  0  0  0  0  0  0  0  0  0  0
   28.6039  -12.9548    0.0000 C   0  0  0  0  0  0  0  0  0  0  0  0
   29.3160  -13.3660    0.0000 C   0  0  0  0  0  0  0  0  0  0  0  0
   29.3142  -11.7112    0.0000 C   0  0  0  0  0  0  0  0  0  0  0  0
   30.0308  -12.1229    0.0000 C   0  0  0  0  0  0  0  0  0  0  0  0
   30.0297  -12.9522    0.0000 C   0  0  0  0  0  0  0  0  0  0  0  0
   30.7439  -13.3635    0.0000 N   0  0  0  0  0  0  0  0  0  0  0  0
   31.4639  -12.9542    0.0000 C   0  0  0  0  0  0  0  0  0  0  0  0
   31.4651  -12.1249    0.0000 C   0  0  0  0  0  0  0  0  0  0  0  0
   30.7462  -11.7049    0.0000 C   0  0  0  0  0  0  0  0  0  0  0  0
   30.7467  -10.8831    0.0000 C   0  0  0  0  0  0  0  0  0  0  0  0
   31.4642  -10.4730    0.0000 C   0  0  0  0  0  0  0  0  0  0  0  0
   31.4645   -9.6478    0.0000 C   0  0  0  0  0  0  0  0  0  0  0  0
   30.7483   -9.2319    0.0000 C   0  0  0  0  0  0  0  0  0  0  0  0
   30.0301   -9.6514    0.0000 C   0  0  0  0  0  0  0  0  0  0  0  0
   30.0332  -10.4751    0.0000 C   0  0  0  0  0  0  0  0  0  0  0  0
   32.1797  -11.7106    0.0000 C   0  0  0  0  0  0  0  0  0  0  0  0
   32.9338  -12.0508    0.0000 C   0  0  0  0  0  0  0  0  0  0  0  0
   33.4851  -11.4373    0.0000 C   0  0  0  0  0  0  0  0  0  0  0  0
   33.0759  -10.7204    0.0000 N   0  0  0  0  0  0  0  0  0  0  0  0
   32.2676  -10.8895    0.0000 N   0  0  0  0  0  0  0  0  0  0  0  0
   32.1785  -13.3671    0.0000 O   0  0  0  0  0  0  0  0  0  0  0  0
   33.4119   -9.9665    0.0000 C   0  0  0  0  0  0  0  0  0  0  0  0
   34.2334   -9.8824    0.0000 C   0  0  0  0  0  0  0  0  0  0  0  0
   32.9305   -9.2964    0.0000 O   0  0  0  0  0  0  0  0  0  0  0  0
   34.3088  -11.4335    0.0000 C   0  0  0  0  0  0  0  0  0  0  0  0
   34.7242  -12.1478    0.0000 C   0  0  0  0  0  0  0  0  0  0  0  0
   35.5471  -12.1443    0.0000 C   0  0  0  0  0  0  0  0  0  0  0  0
   35.9543  -11.4279    0.0000 C   0  0  0  0  0  0  0  0  0  0  0  0
   35.5368  -10.7137    0.0000 C   0  0  0  0  0  0  0  0  0  0  0  0
   34.7153  -10.7206    0.0000 C   0  0  0  0  0  0  0  0  0  0  0  0
   27.8925  -11.7173    0.0000 Cl  0  0  0  0  0  0  0  0  0  0  0  0
   36.7719  -11.4231    0.0000 C   0  0  0  0  0  0  0  0  0  0  0  0
   37.1864  -12.1338    0.0000 C   0  0  0  0  0  0  0  0  0  0  0  0
   38.0073  -12.1293    0.0000 C   0  0  0  0  0  0  0  0  0  0  0  0
   38.4148  -11.4147    0.0000 C   0  0  0  0  0  0  0  0  0  0  0  0
   37.9953  -10.7033    0.0000 C   0  0  0  0  0  0  0  0  0  0  0  0
   37.1758  -10.7113    0.0000 C   0  0  0  0  0  0  0  0  0  0  0  0
   39.2365  -11.4087    0.0000 Cl  0  0  0  0  0  0  0  0  0  0  0  0
  1  2  2  0
  2  3  1  0
  3  6  2  0
  5  4  2  0
  4  1  1  0
  5  6  1  0
  5 10  1  0
  6  7  1  0
  7  8  1  0
  8  9  1  0
  9 10  2  0
 11 12  2  0
 12 13  1  0
 13 14  2  0
 14 15  1  0
 15 16  2  0
 16 11  1  0
 10 11  1  0
 17 18  1  0
 18 19  1  0
 19 20  1  0
 20 21  1  0
 21 17  2  0
  9 17  1  0
  8 22  2  0
 20 23  1  0
 23 24  1  0
 23 25  2  0
 19 26  1  0
 26 27  2  0
 27 28  1  0
 28 29  2  0
 29 30  1  0
 30 31  2  0
 31 26  1  0
  1 32  1  0
 33 34  2  0
 34 35  1  0
 35 36  2  0
 36 37  1  0
 37 38  2  0
 38 33  1  0
 29 33  1  0
 36 39  1  0
M  END
> <From>
www.bindingDB.org

> <BindingDB Reactant_set_id>
51293300

> <Ligand InChI>
InChI=1S/C32H23Cl2N3O2/c1-19(38)37-29(22-9-7-20(8-10-22)21-11-13-24(33)14-12-21)18-28(36-37)31-30(23-5-3-2-4-6-23)26-17-25(34)15-16-27(26)35-32(31)39/h2-17,29H,18H2,1H3,(H,35,39)

> <Ligand InChI Key>
VLHSFYSGWZPRBV-UHFFFAOYSA-N

> <BindingDB MonomerID>
50527115

> <BindingDB Ligand Name>
CHEMBL4588316

> <Target Name>
DNA repair protein RAD51 homolog 1

> <Target Source Organism According to Curator or DataSource>
Homo sapiens

> <Ki (nM)>


> <IC50 (nM)>


> <Kd (nM)>


> <EC50 (nM)>
 45000

> <kon (M-1-s-1)>


> <koff (s-1)>


> <pH>


> <Temp C>


> <Curation/DataSource>
ChEMBL

> <Article DOI>
10.1021/acs.jmedchem.9b01526

> <BindingDB Entry DOI>
10.7270/Q2SF30MF

> <PMID>
32037829

> <PubChem AID>


> <Patent Number>


> <Authors>
Bagnolini, G; Milano, D; Manerba, M; Schipani, F; Ortega, JA; Gioia, D; Falchi, F; Balboni, A; Farabegoli, F; De Franco, F; Robertson, J; Pellicciari, R; Pallavicini, I; Peri, S; Minucci, S; Girotto, S; Di Stefano, G; Roberti, M; Cavalli, A

> <Date of publication>
3/12/2020

> <Date in BindingDB>
2/25/2021

> <Institution>
Istituto Italiano di Tecnologia

> <Link to Ligand in BindingDB>
http://www.bindingdb.org/bind/chemsearch/marvin/MolStructure.jsp?monomerid=50527115

> <Link to Ligand-Target Pair in BindingDB>
http://www.bindingdb.org/jsp/dbsearch/PrimarySearch_ki.jsp?energyterm=kJ/mole&tag=pol&polymerid=4676&target=DNA+repair+protein+RAD51+homolog+1&column=ki&startPg=0&Increment=50&submit=Search

> <Link to Ligand-Target Pair in BindingDB>
http://www.bindingdb.org/jsp/dbsearch/PrimarySearch_ki.jsp?energyterm=kJ/mole&tag=r21&monomerid=50527115&enzyme=DNA+repair+protein+RAD51+homolog+1&column=ki&startPg=0&Increment=50&submit=Search

> <Ligand HET ID in PDB>


> <PDB ID(s) for Ligand-Target Complex>


> <PubChem CID of Ligand>
155567395

> <PubChem SID of Ligand>
440735697

> <ChEBI ID of Ligand>


> <ChEMBL ID of Ligand>


> <DrugBank ID of Ligand>


> <IUPHAR_GRAC ID of Ligand>


> <KEGG ID of Ligand>


> <ZINC ID of Ligand>


> <Number of Protein Chains in Target (bigger than 1 implies a multichain complex)>
1

> <BindingDB Target Chain Sequence>
MAMQMQLEANADTSVEEESFGPQPISRLEQCGINANDVKKLEEAGFHTVEAVAYAPKKELINIKGISEAKADKILAEAAKLVPMGFTTATEFHQRRSEIIQITTGSKELDKLLQGGIETGSITEMFGEFRTGKTQICHTLAVTCQLPIDRGGGEGKAMYIDTEGTFRPERLLAVAERYGLSGSDVLDNVAYARAFNTDHQTQLLYQASAMMVESRYALLIVDSATALYRTDYSGRGELSARQMHLARFLRMLLRLADEFGVAVVITNQVVAQVDGAAMFAADPKKPIGGNIIAHASTTRLYLRKGRGETRICKIYDSPCLPEAEAMFAINADGVGDAKD

> <PDB ID(s) of Target Chain>
1N0W,5JZC,5NP7,5NWL,8BQ2,8BR2,8BSC

> <UniProt (SwissProt) Recommended Name of Target Chain>
DNA repair protein RAD51 homolog 1

> <UniProt (SwissProt) Entry Name of Target Chain>
RAD51_HUMAN

> <UniProt (SwissProt) Primary ID of Target Chain>
Q06609

> <UniProt (SwissProt) Secondary ID(s) of Target Chain>
B0FXP0 B2R8T6 Q6FHX9 Q6ZNA8 Q9BV60

> <UniProt (SwissProt) Alternative ID(s) of Target Chain>


> <UniProt (TrEMBL) Submitted Name of Target Chain>


> <UniProt (TrEMBL) Entry Name of Target Chain>


> <UniProt (TrEMBL) Primary ID of Target Chain>


> <UniProt (TrEMBL) Secondary ID(s) of Target Chain>


> <UniProt (TrEMBL) Alternative ID(s) of Target Chain>


$$$$
 
     RDKit          2D

 36 41  0  0  0  0  0  0  0  0999 V2000
   29.7324  -20.6289    0.0000 C   0  0  0  0  0  0  0  0  0  0  0  0
   29.7312  -21.4571    0.0000 C   0  0  0  0  0  0  0  0  0  0  0  0
   30.4432  -21.8683    0.0000 C   0  0  0  0  0  0  0  0  0  0  0  0
   30.4413  -20.2137    0.0000 C   0  0  0  0  0  0  0  0  0  0  0  0
   31.1580  -20.6253    0.0000 C   0  0  0  0  0  0  0  0  0  0  0  0
   31.1568  -21.4546    0.0000 C   0  0  0  0  0  0  0  0  0  0  0  0
   31.8710  -21.8659    0.0000 N   0  0  0  0  0  0  0  0  0  0  0  0
   32.5910  -21.4566    0.0000 C   0  0  0  0  0  0  0  0  0  0  0  0
   32.5922  -20.6273    0.0000 C   0  0  0  0  0  0  0  0  0  0  0  0
   31.8734  -20.2073    0.0000 C   0  0  0  0  0  0  0  0  0  0  0  0
   31.8739  -19.3856    0.0000 C   0  0  0  0  0  0  0  0  0  0  0  0
   32.5913  -18.9754    0.0000 C   0  0  0  0  0  0  0  0  0  0  0  0
   32.5916  -18.1504    0.0000 C   0  0  0  0  0  0  0  0  0  0  0  0
   31.8754  -17.7345    0.0000 C   0  0  0  0  0  0  0  0  0  0  0  0
   31.1572  -18.1539    0.0000 C   0  0  0  0  0  0  0  0  0  0  0  0
   31.1604  -18.9776    0.0000 C   0  0  0  0  0  0  0  0  0  0  0  0
   33.3068  -20.2131    0.0000 C   0  0  0  0  0  0  0  0  0  0  0  0
   34.0608  -20.5532    0.0000 C   0  0  0  0  0  0  0  0  0  0  0  0
   34.6121  -19.9398    0.0000 C   0  0  0  0  0  0  0  0  0  0  0  0
   34.2029  -19.2230    0.0000 N   0  0  0  0  0  0  0  0  0  0  0  0
   33.3947  -19.3920    0.0000 N   0  0  0  0  0  0  0  0  0  0  0  0
   33.3056  -21.8695    0.0000 O   0  0  0  0  0  0  0  0  0  0  0  0
   34.5389  -18.4689    0.0000 C   0  0  0  0  0  0  0  0  0  0  0  0
   35.3604  -18.3850    0.0000 C   0  0  0  0  0  0  0  0  0  0  0  0
   34.0575  -17.7990    0.0000 O   0  0  0  0  0  0  0  0  0  0  0  0
   35.4357  -19.9359    0.0000 C   0  0  0  0  0  0  0  0  0  0  0  0
   35.8510  -20.6502    0.0000 C   0  0  0  0  0  0  0  0  0  0  0  0
   36.6637  -19.2161    0.0000 C   0  0  0  0  0  0  0  0  0  0  0  0
   35.8422  -19.2232    0.0000 C   0  0  0  0  0  0  0  0  0  0  0  0
   29.0198  -20.2198    0.0000 Cl  0  0  0  0  0  0  0  0  0  0  0  0
   37.0812  -19.9304    0.0000 C   0  0  0  0  0  0  0  0  0  0  0  0
   36.6758  -20.6458    0.0000 C   0  0  0  0  0  0  0  0  0  0  0  0
   37.2310  -21.2524    0.0000 C   0  0  0  0  0  0  0  0  0  0  0  0
   37.9795  -20.9119    0.0000 C   0  0  0  0  0  0  0  0  0  0  0  0
   37.8868  -20.0949    0.0000 N   0  0  0  0  0  0  0  0  0  0  0  0
   38.4929  -19.5402    0.0000 C   0  0  0  0  0  0  0  0  0  0  0  0
  1  2  2  0
  2  3  1  0
  3  6  2  0
  5  4  2  0
  4  1  1  0
  5  6  1  0
  5 10  1  0
  6  7  1  0
  7  8  1  0
  8  9  1  0
  9 10  2  0
 11 12  2  0
 12 13  1  0
 13 14  2  0
 14 15  1  0
 15 16  2  0
 16 11  1  0
 10 11  1  0
 17 18  1  0
 18 19  1  0
 19 20  1  0
 20 21  1  0
 21 17  2  0
  9 17  1  0
  8 22  2  0
 20 23  1  0
 23 24  1  0
 23 25  2  0
 19 26  1  0
 26 27  2  0
 27 32  1  0
 31 28  1  0
 28 29  2  0
 29 26  1  0
  1 30  1  0
 31 32  2  0
 32 33  1  0
 33 34  2  0
 34 35  1  0
 35 31  1  0
 35 36  1  0
M  END
> <From>
www.bindingDB.org

> <BindingDB Reactant_set_id>
51293301

> <Ligand InChI>
InChI=1S/C29H23ClN4O2/c1-17(35)34-26(19-8-11-25-20(14-19)12-13-33(25)2)16-24(32-34)28-27(18-6-4-3-5-7-18)22-15-21(30)9-10-23(22)31-29(28)36/h3-15,26H,16H2,1-2H3,(H,31,36)

> <Ligand InChI Key>
OFBXPBNKCDEJSV-UHFFFAOYSA-N

> <BindingDB MonomerID>
50527116

> <BindingDB Ligand Name>
CHEMBL4535304

> <Target Name>
DNA repair protein RAD51 homolog 1

> <Target Source Organism According to Curator or DataSource>
Homo sapiens

> <Ki (nM)>


> <IC50 (nM)>


> <Kd (nM)>


> <EC50 (nM)>
 18000

> <kon (M-1-s-1)>


> <koff (s-1)>


> <pH>


> <Temp C>


> <Curation/DataSource>
ChEMBL

> <Article DOI>
10.1021/acs.jmedchem.9b01526

> <BindingDB Entry DOI>
10.7270/Q2SF30MF

> <PMID>
32037829

> <PubChem AID>


> <Patent Number>


> <Authors>
Bagnolini, G; Milano, D; Manerba, M; Schipani, F; Ortega, JA; Gioia, D; Falchi, F; Balboni, A; Farabegoli, F; De Franco, F; Robertson, J; Pellicciari, R; Pallavicini, I; Peri, S; Minucci, S; Girotto, S; Di Stefano, G; Roberti, M; Cavalli, A

> <Date of publication>
3/12/2020

> <Date in BindingDB>
2/25/2021

> <Institution>
Istituto Italiano di Tecnologia

> <Link to Ligand in BindingDB>
http://www.bindingdb.org/bind/chemsearch/marvin/MolStructure.jsp?monomerid=50527116

> <Link to Ligand-Target Pair in BindingDB>
http://www.bindingdb.org/jsp/dbsearch/PrimarySearch_ki.jsp?energyterm=kJ/mole&tag=pol&polymerid=4676&target=DNA+repair+protein+RAD51+homolog+1&column=ki&startPg=0&Increment=50&submit=Search

> <Link to Ligand-Target Pair in BindingDB>
http://www.bindingdb.org/jsp/dbsearch/PrimarySearch_ki.jsp?energyterm=kJ/mole&tag=r21&monomerid=50527116&enzyme=DNA+repair+protein+RAD51+homolog+1&column=ki&startPg=0&Increment=50&submit=Search

> <Ligand HET ID in PDB>


> <PDB ID(s) for Ligand-Target Complex>


> <PubChem CID of Ligand>
155547558

> <PubChem SID of Ligand>
440735698

> <ChEBI ID of Ligand>


> <ChEMBL ID of Ligand>


> <DrugBank ID of Ligand>


> <IUPHAR_GRAC ID of Ligand>


> <KEGG ID of Ligand>


> <ZINC ID of Ligand>


> <Number of Protein Chains in Target (bigger than 1 implies a multichain complex)>
1

> <BindingDB Target Chain Sequence>
MAMQMQLEANADTSVEEESFGPQPISRLEQCGINANDVKKLEEAGFHTVEAVAYAPKKELINIKGISEAKADKILAEAAKLVPMGFTTATEFHQRRSEIIQITTGSKELDKLLQGGIETGSITEMFGEFRTGKTQICHTLAVTCQLPIDRGGGEGKAMYIDTEGTFRPERLLAVAERYGLSGSDVLDNVAYARAFNTDHQTQLLYQASAMMVESRYALLIVDSATALYRTDYSGRGELSARQMHLARFLRMLLRLADEFGVAVVITNQVVAQVDGAAMFAADPKKPIGGNIIAHASTTRLYLRKGRGETRICKIYDSPCLPEAEAMFAINADGVGDAKD

> <PDB ID(s) of Target Chain>
1N0W,5JZC,5NP7,5NWL,8BQ2,8BR2,8BSC

> <UniProt (SwissProt) Recommended Name of Target Chain>
DNA repair protein RAD51 homolog 1

> <UniProt (SwissProt) Entry Name of Target Chain>
RAD51_HUMAN

> <UniProt (SwissProt) Primary ID of Target Chain>
Q06609

> <UniProt (SwissProt) Secondary ID(s) of Target Chain>
B0FXP0 B2R8T6 Q6FHX9 Q6ZNA8 Q9BV60

> <UniProt (SwissProt) Alternative ID(s) of Target Chain>


> <UniProt (TrEMBL) Submitted Name of Target Chain>


> <UniProt (TrEMBL) Entry Name of Target Chain>


> <UniProt (TrEMBL) Primary ID of Target Chain>


> <UniProt (TrEMBL) Secondary ID(s) of Target Chain>


> <UniProt (TrEMBL) Alternative ID(s) of Target Chain>


$$$$
 
     RDKit          2D

 37 42  0  0  0  0  0  0  0  0999 V2000
   14.9819  -28.4479    0.0000 C   0  0  0  0  0  0  0  0  0  0  0  0
   14.9808  -29.2760    0.0000 C   0  0  0  0  0  0  0  0  0  0  0  0
   15.6926  -29.6872    0.0000 C   0  0  0  0  0  0  0  0  0  0  0  0
   15.6908  -28.0328    0.0000 C   0  0  0  0  0  0  0  0  0  0  0  0
   16.4074  -28.4443    0.0000 C   0  0  0  0  0  0  0  0  0  0  0  0
   16.4062  -29.2735    0.0000 C   0  0  0  0  0  0  0  0  0  0  0  0
   17.1203  -29.6848    0.0000 N   0  0  0  0  0  0  0  0  0  0  0  0
   17.8401  -29.2755    0.0000 C   0  0  0  0  0  0  0  0  0  0  0  0
   17.8414  -28.4463    0.0000 C   0  0  0  0  0  0  0  0  0  0  0  0
   17.1226  -28.0264    0.0000 C   0  0  0  0  0  0  0  0  0  0  0  0
   17.1231  -27.2048    0.0000 C   0  0  0  0  0  0  0  0  0  0  0  0
   17.8404  -26.7947    0.0000 C   0  0  0  0  0  0  0  0  0  0  0  0
   17.8408  -25.9697    0.0000 C   0  0  0  0  0  0  0  0  0  0  0  0
   17.1246  -25.5540    0.0000 C   0  0  0  0  0  0  0  0  0  0  0  0
   16.4066  -25.9733    0.0000 C   0  0  0  0  0  0  0  0  0  0  0  0
   16.4097  -26.7969    0.0000 C   0  0  0  0  0  0  0  0  0  0  0  0
   18.5559  -28.0322    0.0000 C   0  0  0  0  0  0  0  0  0  0  0  0
   19.3098  -28.3722    0.0000 C   0  0  0  0  0  0  0  0  0  0  0  0
   19.8610  -27.7588    0.0000 C   0  0  0  0  0  0  0  0  0  0  0  0
   19.4519  -27.0422    0.0000 N   0  0  0  0  0  0  0  0  0  0  0  0
   18.6438  -27.2111    0.0000 N   0  0  0  0  0  0  0  0  0  0  0  0
   18.5547  -29.6883    0.0000 O   0  0  0  0  0  0  0  0  0  0  0  0
   19.7878  -26.2883    0.0000 C   0  0  0  0  0  0  0  0  0  0  0  0
   20.6092  -26.2044    0.0000 C   0  0  0  0  0  0  0  0  0  0  0  0
   19.3065  -25.6183    0.0000 O   0  0  0  0  0  0  0  0  0  0  0  0
   20.6845  -27.7550    0.0000 C   0  0  0  0  0  0  0  0  0  0  0  0
   21.0998  -28.4692    0.0000 C   0  0  0  0  0  0  0  0  0  0  0  0
   21.9125  -27.0354    0.0000 C   0  0  0  0  0  0  0  0  0  0  0  0
   21.0910  -27.0423    0.0000 C   0  0  0  0  0  0  0  0  0  0  0  0
   14.2694  -28.0389    0.0000 Cl  0  0  0  0  0  0  0  0  0  0  0  0
   22.3298  -27.7495    0.0000 C   0  0  0  0  0  0  0  0  0  0  0  0
   21.9245  -28.4648    0.0000 C   0  0  0  0  0  0  0  0  0  0  0  0
   22.4796  -29.0713    0.0000 C   0  0  0  0  0  0  0  0  0  0  0  0
   23.2280  -28.7308    0.0000 N   0  0  0  0  0  0  0  0  0  0  0  0
   23.1353  -27.9140    0.0000 N   0  0  0  0  0  0  0  0  0  0  0  0
   23.7413  -27.3593    0.0000 C   0  0  0  0  0  0  0  0  0  0  0  0
   24.5248  -27.6068    0.0000 C   0  0  0  0  0  0  0  0  0  0  0  0
  1  2  2  0
  2  3  1  0
  3  6  2  0
  5  4  2  0
  4  1  1  0
  5  6  1  0
  5 10  1  0
  6  7  1  0
  7  8  1  0
  8  9  1  0
  9 10  2  0
 11 12  2  0
 12 13  1  0
 13 14  2  0
 14 15  1  0
 15 16  2  0
 16 11  1  0
 10 11  1  0
 17 18  1  0
 18 19  1  0
 19 20  1  0
 20 21  1  0
 21 17  2  0
  9 17  1  0
  8 22  2  0
 20 23  1  0
 23 24  1  0
 23 25  2  0
 19 26  1  0
 26 27  2  0
 27 32  1  0
 31 28  1  0
 28 29  2  0
 29 26  1  0
  1 30  1  0
 31 32  2  0
 32 33  1  0
 33 34  2  0
 34 35  1  0
 35 31  1  0
 35 36  1  0
 36 37  1  0
M  END
> <From>
www.bindingDB.org

> <BindingDB Reactant_set_id>
51293302

> <Ligand InChI>
InChI=1S/C29H24ClN5O2/c1-3-34-25-12-9-19(13-20(25)16-31-34)26-15-24(33-35(26)17(2)36)28-27(18-7-5-4-6-8-18)22-14-21(30)10-11-23(22)32-29(28)37/h4-14,16,26H,3,15H2,1-2H3,(H,32,37)

> <Ligand InChI Key>
ZUOKOLKTLCYPLI-UHFFFAOYSA-N

> <BindingDB MonomerID>
50527117

> <BindingDB Ligand Name>
CHEMBL4435090

> <Target Name>
DNA repair protein RAD51 homolog 1

> <Target Source Organism According to Curator or DataSource>
Homo sapiens

> <Ki (nM)>


> <IC50 (nM)>


> <Kd (nM)>


> <EC50 (nM)>
 40000

> <kon (M-1-s-1)>


> <koff (s-1)>


> <pH>


> <Temp C>


> <Curation/DataSource>
ChEMBL

> <Article DOI>
10.1021/acs.jmedchem.9b01526

> <BindingDB Entry DOI>
10.7270/Q2SF30MF

> <PMID>
32037829

> <PubChem AID>


> <Patent Number>


> <Authors>
Bagnolini, G; Milano, D; Manerba, M; Schipani, F; Ortega, JA; Gioia, D; Falchi, F; Balboni, A; Farabegoli, F; De Franco, F; Robertson, J; Pellicciari, R; Pallavicini, I; Peri, S; Minucci, S; Girotto, S; Di Stefano, G; Roberti, M; Cavalli, A

> <Date of publication>
3/12/2020

> <Date in BindingDB>
2/25/2021

> <Institution>
Istituto Italiano di Tecnologia

> <Link to Ligand in BindingDB>
http://www.bindingdb.org/bind/chemsearch/marvin/MolStructure.jsp?monomerid=50527117

> <Link to Ligand-Target Pair in BindingDB>
http://www.bindingdb.org/jsp/dbsearch/PrimarySearch_ki.jsp?energyterm=kJ/mole&tag=pol&polymerid=4676&target=DNA+repair+protein+RAD51+homolog+1&column=ki&startPg=0&Increment=50&submit=Search

> <Link to Ligand-Target Pair in BindingDB>
http://www.bindingdb.org/jsp/dbsearch/PrimarySearch_ki.jsp?energyterm=kJ/mole&tag=r21&monomerid=50527117&enzyme=DNA+repair+protein+RAD51+homolog+1&column=ki&startPg=0&Increment=50&submit=Search

> <Ligand HET ID in PDB>


> <PDB ID(s) for Ligand-Target Complex>


> <PubChem CID of Ligand>
155510948

> <PubChem SID of Ligand>
440735699

> <ChEBI ID of Ligand>


> <ChEMBL ID of Ligand>


> <DrugBank ID of Ligand>


> <IUPHAR_GRAC ID of Ligand>


> <KEGG ID of Ligand>


> <ZINC ID of Ligand>


> <Number of Protein Chains in Target (bigger than 1 implies a multichain complex)>
1

> <BindingDB Target Chain Sequence>
MAMQMQLEANADTSVEEESFGPQPISRLEQCGINANDVKKLEEAGFHTVEAVAYAPKKELINIKGISEAKADKILAEAAKLVPMGFTTATEFHQRRSEIIQITTGSKELDKLLQGGIETGSITEMFGEFRTGKTQICHTLAVTCQLPIDRGGGEGKAMYIDTEGTFRPERLLAVAERYGLSGSDVLDNVAYARAFNTDHQTQLLYQASAMMVESRYALLIVDSATALYRTDYSGRGELSARQMHLARFLRMLLRLADEFGVAVVITNQVVAQVDGAAMFAADPKKPIGGNIIAHASTTRLYLRKGRGETRICKIYDSPCLPEAEAMFAINADGVGDAKD

> <PDB ID(s) of Target Chain>
1N0W,5JZC,5NP7,5NWL,8BQ2,8BR2,8BSC

> <UniProt (SwissProt) Recommended Name of Target Chain>
DNA repair protein RAD51 homolog 1

> <UniProt (SwissProt) Entry Name of Target Chain>
RAD51_HUMAN

> <UniProt (SwissProt) Primary ID of Target Chain>
Q06609

> <UniProt (SwissProt) Secondary ID(s) of Target Chain>
B0FXP0 B2R8T6 Q6FHX9 Q6ZNA8 Q9BV60

> <UniProt (SwissProt) Alternative ID(s) of Target Chain>


> <UniProt (TrEMBL) Submitted Name of Target Chain>


> <UniProt (TrEMBL) Entry Name of Target Chain>


> <UniProt (TrEMBL) Primary ID of Target Chain>


> <UniProt (TrEMBL) Secondary ID(s) of Target Chain>


> <UniProt (TrEMBL) Alternative ID(s) of Target Chain>


$$$$
 
     RDKit          2D

 41 46  0  0  0  0  0  0  0  0999 V2000
    1.6379  -29.1519    0.0000 C   0  0  0  0  0  0  0  0  0  0  0  0
    1.6368  -29.9802    0.0000 C   0  0  0  0  0  0  0  0  0  0  0  0
    2.3488  -30.3914    0.0000 C   0  0  0  0  0  0  0  0  0  0  0  0
    2.3470  -28.7366    0.0000 C   0  0  0  0  0  0  0  0  0  0  0  0
    3.0638  -29.1483    0.0000 C   0  0  0  0  0  0  0  0  0  0  0  0
    3.0626  -29.9777    0.0000 C   0  0  0  0  0  0  0  0  0  0  0  0
    3.7769  -30.3890    0.0000 N   0  0  0  0  0  0  0  0  0  0  0  0
    4.4969  -29.9797    0.0000 C   0  0  0  0  0  0  0  0  0  0  0  0
    4.4980  -29.1503    0.0000 C   0  0  0  0  0  0  0  0  0  0  0  0
    3.7792  -28.7303    0.0000 C   0  0  0  0  0  0  0  0  0  0  0  0
    3.7797  -27.9085    0.0000 C   0  0  0  0  0  0  0  0  0  0  0  0
    4.4971  -27.4982    0.0000 C   0  0  0  0  0  0  0  0  0  0  0  0
    4.4975  -26.6731    0.0000 C   0  0  0  0  0  0  0  0  0  0  0  0
    3.7812  -26.2572    0.0000 C   0  0  0  0  0  0  0  0  0  0  0  0
    3.0631  -26.6766    0.0000 C   0  0  0  0  0  0  0  0  0  0  0  0
    3.0662  -27.5004    0.0000 C   0  0  0  0  0  0  0  0  0  0  0  0
    5.2128  -28.7360    0.0000 C   0  0  0  0  0  0  0  0  0  0  0  0
    5.9668  -29.0762    0.0000 C   0  0  0  0  0  0  0  0  0  0  0  0
    6.5182  -28.4627    0.0000 C   0  0  0  0  0  0  0  0  0  0  0  0
    6.1090  -27.7458    0.0000 N   0  0  0  0  0  0  0  0  0  0  0  0
    5.3007  -27.9148    0.0000 N   0  0  0  0  0  0  0  0  0  0  0  0
    5.2116  -30.3926    0.0000 O   0  0  0  0  0  0  0  0  0  0  0  0
    6.4450  -26.9917    0.0000 C   0  0  0  0  0  0  0  0  0  0  0  0
    7.2667  -26.9077    0.0000 C   0  0  0  0  0  0  0  0  0  0  0  0
    5.9636  -26.3217    0.0000 O   0  0  0  0  0  0  0  0  0  0  0  0
    7.3420  -28.4589    0.0000 C   0  0  0  0  0  0  0  0  0  0  0  0
    7.7574  -29.1733    0.0000 C   0  0  0  0  0  0  0  0  0  0  0  0
    8.5701  -27.7391    0.0000 C   0  0  0  0  0  0  0  0  0  0  0  0
    7.7485  -27.7460    0.0000 C   0  0  0  0  0  0  0  0  0  0  0  0
    0.9253  -28.7428    0.0000 Cl  0  0  0  0  0  0  0  0  0  0  0  0
    7.6030  -26.1580    0.0000 C   0  0  0  0  0  0  0  0  0  0  0  0
    8.4205  -26.0744    0.0000 C   0  0  0  0  0  0  0  0  0  0  0  0
    8.9017  -26.7406    0.0000 O   0  0  0  0  0  0  0  0  0  0  0  0
    8.7570  -25.3246    0.0000 O   0  0  0  0  0  0  0  0  0  0  0  0
    8.9876  -28.4533    0.0000 C   0  0  0  0  0  0  0  0  0  0  0  0
    8.5823  -29.1688    0.0000 C   0  0  0  0  0  0  0  0  0  0  0  0
    9.1374  -29.7755    0.0000 C   0  0  0  0  0  0  0  0  0  0  0  0
    9.8859  -29.4349    0.0000 N   0  0  0  0  0  0  0  0  0  0  0  0
    9.7933  -28.6179    0.0000 N   0  0  0  0  0  0  0  0  0  0  0  0
   10.6009  -29.8400    0.0000 C   0  0  0  0  0  0  0  0  0  0  0  0
   10.6077  -30.6617    0.0000 C   0  0  0  0  0  0  0  0  0  0  0  0
  1  2  2  0
  2  3  1  0
  3  6  2  0
  5  4  2  0
  4  1  1  0
  5  6  1  0
  5 10  1  0
  6  7  1  0
  7  8  1  0
  8  9  1  0
  9 10  2  0
 11 12  2  0
 12 13  1  0
 13 14  2  0
 14 15  1  0
 15 16  2  0
 16 11  1  0
 10 11  1  0
 17 18  1  0
 18 19  1  0
 19 20  1  0
 20 21  1  0
 21 17  2  0
  9 17  1  0
  8 22  2  0
 20 23  1  0
 23 24  1  0
 23 25  2  0
 19 26  1  0
 26 27  2  0
 27 36  1  0
 35 28  1  0
 28 29  2  0
 29 26  1  0
  1 30  1  0
 24 31  1  0
 31 32  1  0
 32 33  1  0
 32 34  2  0
 35 36  1  0
 36 37  2  0
 37 38  1  0
 38 39  1  0
 39 35  2  0
 38 40  1  0
 40 41  1  0
M  END
> <From>
www.bindingDB.org

> <BindingDB Reactant_set_id>
51293303

> <Ligand InChI>
InChI=1S/C31H26ClN5O4/c1-2-36-17-20-14-19(8-10-23(20)34-36)26-16-25(35-37(26)27(38)12-13-28(39)40)30-29(18-6-4-3-5-7-18)22-15-21(32)9-11-24(22)33-31(30)41/h3-11,14-15,17,26H,2,12-13,16H2,1H3,(H,33,41)(H,39,40)

> <Ligand InChI Key>
WXSKQVVMKRAQRL-UHFFFAOYSA-N

> <BindingDB MonomerID>
50527118

> <BindingDB Ligand Name>
CHEMBL4445494

> <Target Name>
DNA repair protein RAD51 homolog 1

> <Target Source Organism According to Curator or DataSource>
Homo sapiens

> <Ki (nM)>


> <IC50 (nM)>


> <Kd (nM)>


> <EC50 (nM)>
 28000

> <kon (M-1-s-1)>


> <koff (s-1)>


> <pH>


> <Temp C>


> <Curation/DataSource>
ChEMBL

> <Article DOI>
10.1021/acs.jmedchem.9b01526

> <BindingDB Entry DOI>
10.7270/Q2SF30MF

> <PMID>
32037829

> <PubChem AID>


> <Patent Number>


> <Authors>
Bagnolini, G; Milano, D; Manerba, M; Schipani, F; Ortega, JA; Gioia, D; Falchi, F; Balboni, A; Farabegoli, F; De Franco, F; Robertson, J; Pellicciari, R; Pallavicini, I; Peri, S; Minucci, S; Girotto, S; Di Stefano, G; Roberti, M; Cavalli, A

> <Date of publication>
3/12/2020

> <Date in BindingDB>
2/25/2021

> <Institution>
Istituto Italiano di Tecnologia

> <Link to Ligand in BindingDB>
http://www.bindingdb.org/bind/chemsearch/marvin/MolStructure.jsp?monomerid=50527118

> <Link to Ligand-Target Pair in BindingDB>
http://www.bindingdb.org/jsp/dbsearch/PrimarySearch_ki.jsp?energyterm=kJ/mole&tag=pol&polymerid=4676&target=DNA+repair+protein+RAD51+homolog+1&column=ki&startPg=0&Increment=50&submit=Search

> <Link to Ligand-Target Pair in BindingDB>
http://www.bindingdb.org/jsp/dbsearch/PrimarySearch_ki.jsp?energyterm=kJ/mole&tag=r21&monomerid=50527118&enzyme=DNA+repair+protein+RAD51+homolog+1&column=ki&startPg=0&Increment=50&submit=Search

> <Ligand HET ID in PDB>


> <PDB ID(s) for Ligand-Target Complex>


> <PubChem CID of Ligand>
155517883

> <PubChem SID of Ligand>
440735700

> <ChEBI ID of Ligand>


> <ChEMBL ID of Ligand>


> <DrugBank ID of Ligand>


> <IUPHAR_GRAC ID of Ligand>


> <KEGG ID of Ligand>


> <ZINC ID of Ligand>


> <Number of Protein Chains in Target (bigger than 1 implies a multichain complex)>
1

> <BindingDB Target Chain Sequence>
MAMQMQLEANADTSVEEESFGPQPISRLEQCGINANDVKKLEEAGFHTVEAVAYAPKKELINIKGISEAKADKILAEAAKLVPMGFTTATEFHQRRSEIIQITTGSKELDKLLQGGIETGSITEMFGEFRTGKTQICHTLAVTCQLPIDRGGGEGKAMYIDTEGTFRPERLLAVAERYGLSGSDVLDNVAYARAFNTDHQTQLLYQASAMMVESRYALLIVDSATALYRTDYSGRGELSARQMHLARFLRMLLRLADEFGVAVVITNQVVAQVDGAAMFAADPKKPIGGNIIAHASTTRLYLRKGRGETRICKIYDSPCLPEAEAMFAINADGVGDAKD

> <PDB ID(s) of Target Chain>
1N0W,5JZC,5NP7,5NWL,8BQ2,8BR2,8BSC

> <UniProt (SwissProt) Recommended Name of Target Chain>
DNA repair protein RAD51 homolog 1

> <UniProt (SwissProt) Entry Name of Target Chain>
RAD51_HUMAN

> <UniProt (SwissProt) Primary ID of Target Chain>
Q06609

> <UniProt (SwissProt) Secondary ID(s) of Target Chain>
B0FXP0 B2R8T6 Q6FHX9 Q6ZNA8 Q9BV60

> <UniProt (SwissProt) Alternative ID(s) of Target Chain>


> <UniProt (TrEMBL) Submitted Name of Target Chain>


> <UniProt (TrEMBL) Entry Name of Target Chain>


> <UniProt (TrEMBL) Primary ID of Target Chain>


> <UniProt (TrEMBL) Secondary ID(s) of Target Chain>


> <UniProt (TrEMBL) Alternative ID(s) of Target Chain>


$$$$

  Mrv0541 11241418212D          

 37 41  0  0  0  0            999 V2000
   21.3435   -6.6699    0.0000 C   0  0  0  0  0  0  0  0  0  0  0  0
   21.3338   -7.4946    0.0000 C   0  0  0  0  0  0  0  0  0  0  0  0
   22.0391   -7.9152    0.0000 C   0  0  0  0  0  0  0  0  0  0  0  0
   22.7595   -7.5128    0.0000 C   0  0  0  0  0  0  0  0  0  0  0  0
   22.7748   -6.6897    0.0000 C   0  0  0  0  0  0  0  0  0  0  0  0
   22.0640   -6.2675    0.0000 C   0  0  0  0  0  0  0  0  0  0  0  0
   23.4704   -7.9350    0.0000 N   0  0  0  0  0  0  0  0  0  0  0  0
   24.1909   -7.5325    0.0000 C   0  0  0  0  0  0  0  0  0  0  0  0
   24.2005   -6.7079    0.0000 C   0  0  0  0  0  0  0  0  0  0  0  0
   23.4953   -6.2873    0.0000 C   0  0  0  0  0  0  0  0  0  0  0  0
   23.5050   -5.4627    0.0000 C   0  0  0  0  0  0  0  0  0  0  0  0
   24.2254   -5.0602    0.0000 C   0  0  0  0  0  0  0  0  0  0  0  0
   24.2387   -4.2335    0.0000 C   0  0  0  0  0  0  0  0  0  0  0  0
   23.5278   -3.8113    0.0000 C   0  0  0  0  0  0  0  0  0  0  0  0
   22.8074   -4.2137    0.0000 C   0  0  0  0  0  0  0  0  0  0  0  0
   22.7977   -5.0384    0.0000 C   0  0  0  0  0  0  0  0  0  0  0  0
   24.8871   -6.2496    0.0000 C   0  0  0  0  0  0  0  0  0  0  0  0
   25.6631   -6.5354    0.0000 C   0  0  0  0  0  0  0  0  0  0  0  0
   26.1752   -5.8886    0.0000 C   0  0  0  0  0  0  0  0  0  0  0  0
   25.7169   -5.2023    0.0000 N   0  0  0  0  0  0  0  0  0  0  0  0
   24.9232   -5.4268    0.0000 N   0  0  0  0  0  0  0  0  0  0  0  0
   26.9992   -5.9189    0.0000 C   0  0  0  0  0  0  0  0  0  0  0  0
   24.8981   -7.9568    0.0000 O   0  0  0  0  0  0  0  0  0  0  0  0
   20.6363   -6.2457    0.0000 Cl  0  0  0  0  0  0  0  0  0  0  0  0
   27.3833   -6.6493    0.0000 C   0  0  0  0  0  0  0  0  0  0  0  0
   28.2061   -6.6855    0.0000 C   0  0  0  0  0  0  0  0  0  0  0  0
   28.6481   -5.9891    0.0000 C   0  0  0  0  0  0  0  0  0  0  0  0
   28.2639   -5.2587    0.0000 C   0  0  0  0  0  0  0  0  0  0  0  0
   27.4412   -5.2225    0.0000 C   0  0  0  0  0  0  0  0  0  0  0  0
   26.0899   -4.4643    0.0000 C   0  0  0  0  0  0  0  0  0  0  0  0
   26.9155   -4.4214    0.0000 C   0  0  0  0  0  0  0  0  0  0  0  0
   25.6394   -3.7729    0.0000 O   0  0  0  0  0  0  0  0  0  0  0  0
   27.2847   -3.6853    0.0000 C   0  0  0  0  0  0  0  0  0  0  0  0
   28.1103   -3.6424    0.0000 C   0  0  0  0  0  0  0  0  0  0  0  0
   28.4832   -2.9044    0.0000 O   0  0  0  0  0  0  0  0  0  0  0  0
   28.5608   -4.3338    0.0000 O   0  0  0  0  0  0  0  0  0  0  0  0
   29.4695   -6.0266    0.0000 Cl  0  0  0  0  0  0  0  0  0  0  0  0
  1  2  2  0  0  0  0
  2  3  1  0  0  0  0
  3  4  2  0  0  0  0
  4  5  1  0  0  0  0
  5  6  2  0  0  0  0
  6  1  1  0  0  0  0
  4  7  1  0  0  0  0
  7  8  1  0  0  0  0
  8  9  1  0  0  0  0
  9 10  2  0  0  0  0
 10  5  1  0  0  0  0
 10 11  1  0  0  0  0
 11 12  2  0  0  0  0
 12 13  1  0  0  0  0
 13 14  2  0  0  0  0
 14 15  1  0  0  0  0
 15 16  2  0  0  0  0
 16 11  1  0  0  0  0
  9 17  1  0  0  0  0
 17 18  1  0  0  0  0
 18 19  1  0  0  0  0
 19 20  1  0  0  0  0
 20 21  1  0  0  0  0
 21 17  2  0  0  0  0
 19 22  1  0  0  0  0
  8 23  2  0  0  0  0
  1 24  1  0  0  0  0
 22 25  2  0  0  0  0
 25 26  1  0  0  0  0
 26 27  2  0  0  0  0
 27 28  1  0  0  0  0
 28 29  2  0  0  0  0
 29 22  1  0  0  0  0
 20 30  1  0  0  0  0
 30 31  1  0  0  0  0
 30 32  2  0  0  0  0
 31 33  1  0  0  0  0
 33 34  1  0  0  0  0
 34 35  1  0  0  0  0
 34 36  2  0  0  0  0
 27 37  1  0  0  0  0
M  END
> <From>
www.bindingDB.org

> <BindingDB Reactant_set_id>
51293304

> <Ligand InChI>
InChI=1S/C28H21Cl2N3O4/c29-18-8-6-16(7-9-18)23-15-22(32-33(23)24(34)12-13-25(35)36)27-26(17-4-2-1-3-5-17)20-14-19(30)10-11-21(20)31-28(27)37/h1-11,14,23H,12-13,15H2,(H,31,37)(H,35,36)

> <Ligand InChI Key>
MDRXWWXBOZYQCX-UHFFFAOYSA-N

> <BindingDB MonomerID>
50440093

> <BindingDB Ligand Name>
CHEMBL2426084

> <Target Name>
DNA repair protein RAD51 homolog 1

> <Target Source Organism According to Curator or DataSource>
Homo sapiens

> <Ki (nM)>


> <IC50 (nM)>


> <Kd (nM)>


> <EC50 (nM)>
 59000

> <kon (M-1-s-1)>


> <koff (s-1)>


> <pH>


> <Temp C>


> <Curation/DataSource>
ChEMBL

> <Article DOI>
10.1021/acs.jmedchem.9b01526

> <BindingDB Entry DOI>
10.7270/Q2SF30MF

> <PMID>
32037829

> <PubChem AID>


> <Patent Number>


> <Authors>
Bagnolini, G; Milano, D; Manerba, M; Schipani, F; Ortega, JA; Gioia, D; Falchi, F; Balboni, A; Farabegoli, F; De Franco, F; Robertson, J; Pellicciari, R; Pallavicini, I; Peri, S; Minucci, S; Girotto, S; Di Stefano, G; Roberti, M; Cavalli, A

> <Date of publication>
3/12/2020

> <Date in BindingDB>
2/25/2021

> <Institution>
Istituto Italiano di Tecnologia

> <Link to Ligand in BindingDB>
http://www.bindingdb.org/bind/chemsearch/marvin/MolStructure.jsp?monomerid=50440093

> <Link to Ligand-Target Pair in BindingDB>
http://www.bindingdb.org/jsp/dbsearch/PrimarySearch_ki.jsp?energyterm=kJ/mole&tag=pol&polymerid=4676&target=DNA+repair+protein+RAD51+homolog+1&column=ki&startPg=0&Increment=50&submit=Search

> <Link to Ligand-Target Pair in BindingDB>
http://www.bindingdb.org/jsp/dbsearch/PrimarySearch_ki.jsp?energyterm=kJ/mole&tag=r21&monomerid=50440093&enzyme=DNA+repair+protein+RAD51+homolog+1&column=ki&startPg=0&Increment=50&submit=Search

> <Ligand HET ID in PDB>


> <PDB ID(s) for Ligand-Target Complex>


> <PubChem CID of Ligand>
71819292

> <PubChem SID of Ligand>
175452410

> <ChEBI ID of Ligand>


> <ChEMBL ID of Ligand>
CHEMBL2426084

> <DrugBank ID of Ligand>


> <IUPHAR_GRAC ID of Ligand>


> <KEGG ID of Ligand>


> <ZINC ID of Ligand>
ZINC96283833

> <Number of Protein Chains in Target (bigger than 1 implies a multichain complex)>
1

> <BindingDB Target Chain Sequence>
MAMQMQLEANADTSVEEESFGPQPISRLEQCGINANDVKKLEEAGFHTVEAVAYAPKKELINIKGISEAKADKILAEAAKLVPMGFTTATEFHQRRSEIIQITTGSKELDKLLQGGIETGSITEMFGEFRTGKTQICHTLAVTCQLPIDRGGGEGKAMYIDTEGTFRPERLLAVAERYGLSGSDVLDNVAYARAFNTDHQTQLLYQASAMMVESRYALLIVDSATALYRTDYSGRGELSARQMHLARFLRMLLRLADEFGVAVVITNQVVAQVDGAAMFAADPKKPIGGNIIAHASTTRLYLRKGRGETRICKIYDSPCLPEAEAMFAINADGVGDAKD

> <PDB ID(s) of Target Chain>
1N0W,5JZC,5NP7,5NWL,8BQ2,8BR2,8BSC

> <UniProt (SwissProt) Recommended Name of Target Chain>
DNA repair protein RAD51 homolog 1

> <UniProt (SwissProt) Entry Name of Target Chain>
RAD51_HUMAN

> <UniProt (SwissProt) Primary ID of Target Chain>
Q06609

> <UniProt (SwissProt) Secondary ID(s) of Target Chain>
B0FXP0 B2R8T6 Q6FHX9 Q6ZNA8 Q9BV60

> <UniProt (SwissProt) Alternative ID(s) of Target Chain>


> <UniProt (TrEMBL) Submitted Name of Target Chain>


> <UniProt (TrEMBL) Entry Name of Target Chain>


> <UniProt (TrEMBL) Primary ID of Target Chain>


> <UniProt (TrEMBL) Secondary ID(s) of Target Chain>


> <UniProt (TrEMBL) Alternative ID(s) of Target Chain>


$$$$
 
     RDKit          2D

 47 53  0  0  0  0  0  0  0  0999 V2000
   28.2629   -5.1344    0.0000 C   0  0  0  0  0  0  0  0  0  0  0  0
   28.2618   -5.9634    0.0000 C   0  0  0  0  0  0  0  0  0  0  0  0
   28.9744   -6.3750    0.0000 C   0  0  0  0  0  0  0  0  0  0  0  0
   28.9727   -4.7187    0.0000 C   0  0  0  0  0  0  0  0  0  0  0  0
   29.6900   -5.1308    0.0000 C   0  0  0  0  0  0  0  0  0  0  0  0
   29.6888   -5.9609    0.0000 C   0  0  0  0  0  0  0  0  0  0  0  0
   30.4038   -6.3726    0.0000 N   0  0  0  0  0  0  0  0  0  0  0  0
   31.1245   -5.9629    0.0000 C   0  0  0  0  0  0  0  0  0  0  0  0
   31.1256   -5.1328    0.0000 C   0  0  0  0  0  0  0  0  0  0  0  0
   30.4061   -4.7124    0.0000 C   0  0  0  0  0  0  0  0  0  0  0  0
   30.4066   -3.8898    0.0000 C   0  0  0  0  0  0  0  0  0  0  0  0
   31.1247   -3.4792    0.0000 C   0  0  0  0  0  0  0  0  0  0  0  0
   31.1251   -2.6534    0.0000 C   0  0  0  0  0  0  0  0  0  0  0  0
   30.4082   -2.2371    0.0000 C   0  0  0  0  0  0  0  0  0  0  0  0
   29.6893   -2.6569    0.0000 C   0  0  0  0  0  0  0  0  0  0  0  0
   29.6924   -3.4814    0.0000 C   0  0  0  0  0  0  0  0  0  0  0  0
   31.8410   -4.7181    0.0000 C   0  0  0  0  0  0  0  0  0  0  0  0
   32.5958   -5.0586    0.0000 C   0  0  0  0  0  0  0  0  0  0  0  0
   33.1476   -4.4445    0.0000 C   0  0  0  0  0  0  0  0  0  0  0  0
   32.7380   -3.7270    0.0000 N   0  0  0  0  0  0  0  0  0  0  0  0
   31.9290   -3.8962    0.0000 N   0  0  0  0  0  0  0  0  0  0  0  0
   31.8398   -6.3762    0.0000 O   0  0  0  0  0  0  0  0  0  0  0  0
   33.0743   -2.9722    0.0000 C   0  0  0  0  0  0  0  0  0  0  0  0
   33.8967   -2.8882    0.0000 C   0  0  0  0  0  0  0  0  0  0  0  0
   32.5925   -2.3016    0.0000 O   0  0  0  0  0  0  0  0  0  0  0  0
   33.9721   -4.4407    0.0000 C   0  0  0  0  0  0  0  0  0  0  0  0
   27.5496   -4.7248    0.0000 Cl  0  0  0  0  0  0  0  0  0  0  0  0
   34.2334   -2.1377    0.0000 C   0  0  0  0  0  0  0  0  0  0  0  0
   35.0516   -2.0541    0.0000 C   0  0  0  0  0  0  0  0  0  0  0  0
   35.5332   -2.7209    0.0000 O   0  0  0  0  0  0  0  0  0  0  0  0
   35.3883   -1.3036    0.0000 O   0  0  0  0  0  0  0  0  0  0  0  0
   34.3858   -5.1551    0.0000 C   0  0  0  0  0  0  0  0  0  0  0  0
   35.2095   -5.1517    0.0000 C   0  0  0  0  0  0  0  0  0  0  0  0
   35.6192   -4.4352    0.0000 C   0  0  0  0  0  0  0  0  0  0  0  0
   35.1992   -3.7208    0.0000 C   0  0  0  0  0  0  0  0  0  0  0  0
   34.3769   -3.7277    0.0000 C   0  0  0  0  0  0  0  0  0  0  0  0
   36.4376   -4.4302    0.0000 C   0  0  0  0  0  0  0  0  0  0  0  0
   36.8525   -5.1417    0.0000 C   0  0  0  0  0  0  0  0  0  0  0  0
   37.6742   -5.1372    0.0000 C   0  0  0  0  0  0  0  0  0  0  0  0
   36.8417   -3.7178    0.0000 C   0  0  0  0  0  0  0  0  0  0  0  0
   37.6621   -3.7098    0.0000 C   0  0  0  0  0  0  0  0  0  0  0  0
   38.0790   -4.4216    0.0000 C   0  0  0  0  0  0  0  0  0  0  0  0
   38.8850   -4.2451    0.0000 N   0  0  0  0  0  0  0  0  0  0  0  0
   38.9661   -3.4240    0.0000 N   0  0  0  0  0  0  0  0  0  0  0  0
   38.2104   -3.0933    0.0000 C   0  0  0  0  0  0  0  0  0  0  0  0
   39.4995   -4.7917    0.0000 C   0  0  0  0  0  0  0  0  0  0  0  0
   39.3336   -5.5973    0.0000 C   0  0  0  0  0  0  0  0  0  0  0  0
  1  2  2  0
  2  3  1  0
  3  6  2  0
  5  4  2  0
  4  1  1  0
  5  6  1  0
  5 10  1  0
  6  7  1  0
  7  8  1  0
  8  9  1  0
  9 10  2  0
 11 12  2  0
 12 13  1  0
 13 14  2  0
 14 15  1  0
 15 16  2  0
 16 11  1  0
 10 11  1  0
 17 18  1  0
 18 19  1  0
 19 20  1  0
 20 21  1  0
 21 17  2  0
  9 17  1  0
  8 22  2  0
 20 23  1  0
 23 24  1  0
 23 25  2  0
 19 26  1  0
  1 27  1  0
 24 28  1  0
 28 29  1  0
 29 30  1  0
 29 31  2  0
 26 32  2  0
 32 33  1  0
 33 34  2  0
 34 35  1  0
 35 36  2  0
 36 26  1  0
 37 38  2  0
 38 39  1  0
 39 42  2  0
 41 40  2  0
 40 37  1  0
 34 37  1  0
 41 42  1  0
 42 43  1  0
 43 44  1  0
 44 45  2  0
 45 41  1  0
 43 46  1  0
 46 47  1  0
M  END
> <From>
www.bindingDB.org

> <BindingDB Reactant_set_id>
51293305

> <Ligand InChI>
InChI=1S/C37H30ClN5O4/c1-2-42-31-15-12-25(18-26(31)21-39-42)22-8-10-23(11-9-22)32-20-30(41-43(32)33(44)16-17-34(45)46)36-35(24-6-4-3-5-7-24)28-19-27(38)13-14-29(28)40-37(36)47/h3-15,18-19,21,32H,2,16-17,20H2,1H3,(H,40,47)(H,45,46)

> <Ligand InChI Key>
ZAKLZXOPOGDIEF-UHFFFAOYSA-N

> <BindingDB MonomerID>
50527119

> <BindingDB Ligand Name>
CHEMBL4579300

> <Target Name>
DNA repair protein RAD51 homolog 1

> <Target Source Organism According to Curator or DataSource>
Homo sapiens

> <Ki (nM)>


> <IC50 (nM)>


> <Kd (nM)>


> <EC50 (nM)>
 15000

> <kon (M-1-s-1)>


> <koff (s-1)>


> <pH>


> <Temp C>


> <Curation/DataSource>
ChEMBL

> <Article DOI>
10.1021/acs.jmedchem.9b01526

> <BindingDB Entry DOI>
10.7270/Q2SF30MF

> <PMID>
32037829

> <PubChem AID>


> <Patent Number>


> <Authors>
Bagnolini, G; Milano, D; Manerba, M; Schipani, F; Ortega, JA; Gioia, D; Falchi, F; Balboni, A; Farabegoli, F; De Franco, F; Robertson, J; Pellicciari, R; Pallavicini, I; Peri, S; Minucci, S; Girotto, S; Di Stefano, G; Roberti, M; Cavalli, A

> <Date of publication>
3/12/2020

> <Date in BindingDB>
2/25/2021

> <Institution>
Istituto Italiano di Tecnologia

> <Link to Ligand in BindingDB>
http://www.bindingdb.org/bind/chemsearch/marvin/MolStructure.jsp?monomerid=50527119

> <Link to Ligand-Target Pair in BindingDB>
http://www.bindingdb.org/jsp/dbsearch/PrimarySearch_ki.jsp?energyterm=kJ/mole&tag=pol&polymerid=4676&target=DNA+repair+protein+RAD51+homolog+1&column=ki&startPg=0&Increment=50&submit=Search

> <Link to Ligand-Target Pair in BindingDB>
http://www.bindingdb.org/jsp/dbsearch/PrimarySearch_ki.jsp?energyterm=kJ/mole&tag=r21&monomerid=50527119&enzyme=DNA+repair+protein+RAD51+homolog+1&column=ki&startPg=0&Increment=50&submit=Search

> <Ligand HET ID in PDB>


> <PDB ID(s) for Ligand-Target Complex>


> <PubChem CID of Ligand>
155565633

> <PubChem SID of Ligand>
440735701

> <ChEBI ID of Ligand>


> <ChEMBL ID of Ligand>


> <DrugBank ID of Ligand>


> <IUPHAR_GRAC ID of Ligand>


> <KEGG ID of Ligand>


> <ZINC ID of Ligand>


> <Number of Protein Chains in Target (bigger than 1 implies a multichain complex)>
1

> <BindingDB Target Chain Sequence>
MAMQMQLEANADTSVEEESFGPQPISRLEQCGINANDVKKLEEAGFHTVEAVAYAPKKELINIKGISEAKADKILAEAAKLVPMGFTTATEFHQRRSEIIQITTGSKELDKLLQGGIETGSITEMFGEFRTGKTQICHTLAVTCQLPIDRGGGEGKAMYIDTEGTFRPERLLAVAERYGLSGSDVLDNVAYARAFNTDHQTQLLYQASAMMVESRYALLIVDSATALYRTDYSGRGELSARQMHLARFLRMLLRLADEFGVAVVITNQVVAQVDGAAMFAADPKKPIGGNIIAHASTTRLYLRKGRGETRICKIYDSPCLPEAEAMFAINADGVGDAKD

> <PDB ID(s) of Target Chain>
1N0W,5JZC,5NP7,5NWL,8BQ2,8BR2,8BSC

> <UniProt (SwissProt) Recommended Name of Target Chain>
DNA repair protein RAD51 homolog 1

> <UniProt (SwissProt) Entry Name of Target Chain>
RAD51_HUMAN

> <UniProt (SwissProt) Primary ID of Target Chain>
Q06609

> <UniProt (SwissProt) Secondary ID(s) of Target Chain>
B0FXP0 B2R8T6 Q6FHX9 Q6ZNA8 Q9BV60

> <UniProt (SwissProt) Alternative ID(s) of Target Chain>


> <UniProt (TrEMBL) Submitted Name of Target Chain>


> <UniProt (TrEMBL) Entry Name of Target Chain>


> <UniProt (TrEMBL) Primary ID of Target Chain>


> <UniProt (TrEMBL) Secondary ID(s) of Target Chain>


> <UniProt (TrEMBL) Alternative ID(s) of Target Chain>


$$$$
 
     RDKit          2D

 40 45  0  0  0  0  0  0  0  0999 V2000
   15.4079  -20.5428    0.0000 C   0  0  0  0  0  0  0  0  0  0  0  0
   15.4067  -21.3711    0.0000 C   0  0  0  0  0  0  0  0  0  0  0  0
   16.1187  -21.7824    0.0000 C   0  0  0  0  0  0  0  0  0  0  0  0
   16.1169  -20.1277    0.0000 C   0  0  0  0  0  0  0  0  0  0  0  0
   16.8335  -20.5392    0.0000 C   0  0  0  0  0  0  0  0  0  0  0  0
   16.8324  -21.3686    0.0000 C   0  0  0  0  0  0  0  0  0  0  0  0
   17.5466  -21.7800    0.0000 N   0  0  0  0  0  0  0  0  0  0  0  0
   18.2666  -21.3706    0.0000 C   0  0  0  0  0  0  0  0  0  0  0  0
   18.2678  -20.5412    0.0000 C   0  0  0  0  0  0  0  0  0  0  0  0
   17.5490  -20.1212    0.0000 C   0  0  0  0  0  0  0  0  0  0  0  0
   17.5495  -19.2996    0.0000 C   0  0  0  0  0  0  0  0  0  0  0  0
   18.2669  -18.8893    0.0000 C   0  0  0  0  0  0  0  0  0  0  0  0
   18.2672  -18.0642    0.0000 C   0  0  0  0  0  0  0  0  0  0  0  0
   17.5510  -17.6484    0.0000 C   0  0  0  0  0  0  0  0  0  0  0  0
   16.8328  -18.0678    0.0000 C   0  0  0  0  0  0  0  0  0  0  0  0
   16.8359  -18.8915    0.0000 C   0  0  0  0  0  0  0  0  0  0  0  0
   18.9824  -20.1271    0.0000 C   0  0  0  0  0  0  0  0  0  0  0  0
   19.7365  -20.4671    0.0000 C   0  0  0  0  0  0  0  0  0  0  0  0
   20.2878  -19.8536    0.0000 C   0  0  0  0  0  0  0  0  0  0  0  0
   19.8787  -19.1369    0.0000 N   0  0  0  0  0  0  0  0  0  0  0  0
   19.0703  -19.3059    0.0000 N   0  0  0  0  0  0  0  0  0  0  0  0
   18.9812  -21.7835    0.0000 O   0  0  0  0  0  0  0  0  0  0  0  0
   20.2146  -18.3828    0.0000 C   0  0  0  0  0  0  0  0  0  0  0  0
   21.0362  -18.2989    0.0000 C   0  0  0  0  0  0  0  0  0  0  0  0
   19.7332  -17.7128    0.0000 O   0  0  0  0  0  0  0  0  0  0  0  0
   21.1115  -19.8498    0.0000 C   0  0  0  0  0  0  0  0  0  0  0  0
   21.5269  -20.5642    0.0000 C   0  0  0  0  0  0  0  0  0  0  0  0
   22.3498  -20.5606    0.0000 C   0  0  0  0  0  0  0  0  0  0  0  0
   22.7570  -19.8443    0.0000 C   0  0  0  0  0  0  0  0  0  0  0  0
   22.3395  -19.1301    0.0000 C   0  0  0  0  0  0  0  0  0  0  0  0
   21.5180  -19.1370    0.0000 C   0  0  0  0  0  0  0  0  0  0  0  0
   14.6952  -20.1338    0.0000 Cl  0  0  0  0  0  0  0  0  0  0  0  0
   23.5746  -19.8395    0.0000 C   0  0  0  0  0  0  0  0  0  0  0  0
   23.9891  -20.5503    0.0000 C   0  0  0  0  0  0  0  0  0  0  0  0
   24.8101  -20.5457    0.0000 C   0  0  0  0  0  0  0  0  0  0  0  0
   25.2175  -19.8311    0.0000 C   0  0  0  0  0  0  0  0  0  0  0  0
   24.7980  -19.1196    0.0000 C   0  0  0  0  0  0  0  0  0  0  0  0
   23.9785  -19.1276    0.0000 C   0  0  0  0  0  0  0  0  0  0  0  0
   26.0392  -19.8251    0.0000 O   0  0  0  0  0  0  0  0  0  0  0  0
   26.4553  -20.5337    0.0000 C   0  0  0  0  0  0  0  0  0  0  0  0
  1  2  2  0
  2  3  1  0
  3  6  2  0
  5  4  2  0
  4  1  1  0
  5  6  1  0
  5 10  1  0
  6  7  1  0
  7  8  1  0
  8  9  1  0
  9 10  2  0
 11 12  2  0
 12 13  1  0
 13 14  2  0
 14 15  1  0
 15 16  2  0
 16 11  1  0
 10 11  1  0
 17 18  1  0
 18 19  1  0
 19 20  1  0
 20 21  1  0
 21 17  2  0
  9 17  1  0
  8 22  2  0
 20 23  1  0
 23 24  1  0
 23 25  2  0
 19 26  1  0
 26 27  2  0
 27 28  1  0
 28 29  2  0
 29 30  1  0
 30 31  2  0
 31 26  1  0
  1 32  1  0
 33 34  2  0
 34 35  1  0
 35 36  2  0
 36 37  1  0
 37 38  2  0
 38 33  1  0
 29 33  1  0
 36 39  1  0
 39 40  1  0
M  END
> <From>
www.bindingDB.org

> <BindingDB Reactant_set_id>
51293306

> <Ligand InChI>
InChI=1S/C33H26ClN3O3/c1-20(38)37-30(23-10-8-21(9-11-23)22-12-15-26(40-2)16-13-22)19-29(36-37)32-31(24-6-4-3-5-7-24)27-18-25(34)14-17-28(27)35-33(32)39/h3-18,30H,19H2,1-2H3,(H,35,39)

> <Ligand InChI Key>
BMZWJRCKOKXBGT-UHFFFAOYSA-N

> <BindingDB MonomerID>
50527120

> <BindingDB Ligand Name>
CHEMBL4533313

> <Target Name>
DNA repair protein RAD51 homolog 1

> <Target Source Organism According to Curator or DataSource>
Homo sapiens

> <Ki (nM)>


> <IC50 (nM)>


> <Kd (nM)>


> <EC50 (nM)>
 70000

> <kon (M-1-s-1)>


> <koff (s-1)>


> <pH>


> <Temp C>


> <Curation/DataSource>
ChEMBL

> <Article DOI>
10.1021/acs.jmedchem.9b01526

> <BindingDB Entry DOI>
10.7270/Q2SF30MF

> <PMID>
32037829

> <PubChem AID>


> <Patent Number>


> <Authors>
Bagnolini, G; Milano, D; Manerba, M; Schipani, F; Ortega, JA; Gioia, D; Falchi, F; Balboni, A; Farabegoli, F; De Franco, F; Robertson, J; Pellicciari, R; Pallavicini, I; Peri, S; Minucci, S; Girotto, S; Di Stefano, G; Roberti, M; Cavalli, A

> <Date of publication>
3/12/2020

> <Date in BindingDB>
2/25/2021

> <Institution>
Istituto Italiano di Tecnologia

> <Link to Ligand in BindingDB>
http://www.bindingdb.org/bind/chemsearch/marvin/MolStructure.jsp?monomerid=50527120

> <Link to Ligand-Target Pair in BindingDB>
http://www.bindingdb.org/jsp/dbsearch/PrimarySearch_ki.jsp?energyterm=kJ/mole&tag=pol&polymerid=4676&target=DNA+repair+protein+RAD51+homolog+1&column=ki&startPg=0&Increment=50&submit=Search

> <Link to Ligand-Target Pair in BindingDB>
http://www.bindingdb.org/jsp/dbsearch/PrimarySearch_ki.jsp?energyterm=kJ/mole&tag=r21&monomerid=50527120&enzyme=DNA+repair+protein+RAD51+homolog+1&column=ki&startPg=0&Increment=50&submit=Search

> <Ligand HET ID in PDB>


> <PDB ID(s) for Ligand-Target Complex>


> <PubChem CID of Ligand>
155547239

> <PubChem SID of Ligand>
440735702

> <ChEBI ID of Ligand>


> <ChEMBL ID of Ligand>


> <DrugBank ID of Ligand>


> <IUPHAR_GRAC ID of Ligand>


> <KEGG ID of Ligand>


> <ZINC ID of Ligand>


> <Number of Protein Chains in Target (bigger than 1 implies a multichain complex)>
1

> <BindingDB Target Chain Sequence>
MAMQMQLEANADTSVEEESFGPQPISRLEQCGINANDVKKLEEAGFHTVEAVAYAPKKELINIKGISEAKADKILAEAAKLVPMGFTTATEFHQRRSEIIQITTGSKELDKLLQGGIETGSITEMFGEFRTGKTQICHTLAVTCQLPIDRGGGEGKAMYIDTEGTFRPERLLAVAERYGLSGSDVLDNVAYARAFNTDHQTQLLYQASAMMVESRYALLIVDSATALYRTDYSGRGELSARQMHLARFLRMLLRLADEFGVAVVITNQVVAQVDGAAMFAADPKKPIGGNIIAHASTTRLYLRKGRGETRICKIYDSPCLPEAEAMFAINADGVGDAKD

> <PDB ID(s) of Target Chain>
1N0W,5JZC,5NP7,5NWL,8BQ2,8BR2,8BSC

> <UniProt (SwissProt) Recommended Name of Target Chain>
DNA repair protein RAD51 homolog 1

> <UniProt (SwissProt) Entry Name of Target Chain>
RAD51_HUMAN

> <UniProt (SwissProt) Primary ID of Target Chain>
Q06609

> <UniProt (SwissProt) Secondary ID(s) of Target Chain>
B0FXP0 B2R8T6 Q6FHX9 Q6ZNA8 Q9BV60

> <UniProt (SwissProt) Alternative ID(s) of Target Chain>


> <UniProt (TrEMBL) Submitted Name of Target Chain>


> <UniProt (TrEMBL) Entry Name of Target Chain>


> <UniProt (TrEMBL) Primary ID of Target Chain>


> <UniProt (TrEMBL) Secondary ID(s) of Target Chain>


> <UniProt (TrEMBL) Alternative ID(s) of Target Chain>


$$$$
 
     RDKit          2D

 40 45  0  0  0  0  0  0  0  0999 V2000
   28.4702   -3.5034    0.0000 C   0  0  0  0  0  0  0  0  0  0  0  0
   28.4691   -4.3318    0.0000 C   0  0  0  0  0  0  0  0  0  0  0  0
   29.1811   -4.7432    0.0000 C   0  0  0  0  0  0  0  0  0  0  0  0
   29.1794   -3.0881    0.0000 C   0  0  0  0  0  0  0  0  0  0  0  0
   29.8962   -3.4997    0.0000 C   0  0  0  0  0  0  0  0  0  0  0  0
   29.8950   -4.3293    0.0000 C   0  0  0  0  0  0  0  0  0  0  0  0
   30.6095   -4.7407    0.0000 N   0  0  0  0  0  0  0  0  0  0  0  0
   31.3296   -4.3313    0.0000 C   0  0  0  0  0  0  0  0  0  0  0  0
   31.3308   -3.5017    0.0000 C   0  0  0  0  0  0  0  0  0  0  0  0
   30.6118   -3.0816    0.0000 C   0  0  0  0  0  0  0  0  0  0  0  0
   30.6123   -2.2598    0.0000 C   0  0  0  0  0  0  0  0  0  0  0  0
   31.3298   -1.8495    0.0000 C   0  0  0  0  0  0  0  0  0  0  0  0
   31.3302   -1.0242    0.0000 C   0  0  0  0  0  0  0  0  0  0  0  0
   30.6137   -0.6083    0.0000 C   0  0  0  0  0  0  0  0  0  0  0  0
   29.8955   -1.0278    0.0000 C   0  0  0  0  0  0  0  0  0  0  0  0
   29.8987   -1.8517    0.0000 C   0  0  0  0  0  0  0  0  0  0  0  0
   32.0456   -3.0875    0.0000 C   0  0  0  0  0  0  0  0  0  0  0  0
   32.7998   -3.4276    0.0000 C   0  0  0  0  0  0  0  0  0  0  0  0
   33.3512   -2.8140    0.0000 C   0  0  0  0  0  0  0  0  0  0  0  0
   32.9420   -2.0971    0.0000 N   0  0  0  0  0  0  0  0  0  0  0  0
   32.1335   -2.2662    0.0000 N   0  0  0  0  0  0  0  0  0  0  0  0
   32.0444   -4.7443    0.0000 O   0  0  0  0  0  0  0  0  0  0  0  0
   33.2780   -1.3429    0.0000 C   0  0  0  0  0  0  0  0  0  0  0  0
   34.0998   -1.2589    0.0000 C   0  0  0  0  0  0  0  0  0  0  0  0
   32.7965   -0.6727    0.0000 O   0  0  0  0  0  0  0  0  0  0  0  0
   34.1751   -2.8102    0.0000 C   0  0  0  0  0  0  0  0  0  0  0  0
   27.7574   -3.0942    0.0000 Cl  0  0  0  0  0  0  0  0  0  0  0  0
   34.5885   -3.5241    0.0000 C   0  0  0  0  0  0  0  0  0  0  0  0
   35.4116   -3.5207    0.0000 C   0  0  0  0  0  0  0  0  0  0  0  0
   35.8211   -2.8048    0.0000 C   0  0  0  0  0  0  0  0  0  0  0  0
   35.4014   -2.0908    0.0000 C   0  0  0  0  0  0  0  0  0  0  0  0
   34.5796   -2.0978    0.0000 C   0  0  0  0  0  0  0  0  0  0  0  0
   36.6388   -2.7998    0.0000 C   0  0  0  0  0  0  0  0  0  0  0  0
   37.1238   -3.4553    0.0000 C   0  0  0  0  0  0  0  0  0  0  0  0
   37.9001   -3.1979    0.0000 N   0  0  0  0  0  0  0  0  0  0  0  0
   37.8951   -2.3800    0.0000 N   0  0  0  0  0  0  0  0  0  0  0  0
   37.1159   -2.1321    0.0000 C   0  0  0  0  0  0  0  0  0  0  0  0
   38.5571   -1.8928    0.0000 C   0  0  0  0  0  0  0  0  0  0  0  0
   39.3100   -2.2226    0.0000 C   0  0  0  0  0  0  0  0  0  0  0  0
   39.9719   -1.7354    0.0000 C   0  0  0  0  0  0  0  0  0  0  0  0
  1  2  2  0
  2  3  1  0
  3  6  2  0
  5  4  2  0
  4  1  1  0
  5  6  1  0
  5 10  1  0
  6  7  1  0
  7  8  1  0
  8  9  1  0
  9 10  2  0
 11 12  2  0
 12 13  1  0
 13 14  2  0
 14 15  1  0
 15 16  2  0
 16 11  1  0
 10 11  1  0
 17 18  1  0
 18 19  1  0
 19 20  1  0
 20 21  1  0
 21 17  2  0
  9 17  1  0
  8 22  2  0
 20 23  1  0
 23 24  1  0
 23 25  2  0
 19 26  1  0
  1 27  1  0
 26 28  2  0
 28 29  1  0
 29 30  2  0
 30 31  1  0
 31 32  2  0
 32 26  1  0
 30 33  1  0
 33 34  1  0
 34 35  2  0
 35 36  1  0
 36 37  1  0
 37 33  2  0
 36 38  1  0
 38 39  1  0
 39 40  1  0
M  END
> <From>
www.bindingDB.org

> <BindingDB Reactant_set_id>
51293307

> <Ligand InChI>
InChI=1S/C32H28ClN5O2/c1-3-15-37-19-24(18-34-37)21-9-11-22(12-10-21)29-17-28(36-38(29)20(2)39)31-30(23-7-5-4-6-8-23)26-16-25(33)13-14-27(26)35-32(31)40/h4-14,16,18-19,29H,3,15,17H2,1-2H3,(H,35,40)

> <Ligand InChI Key>
ZINOKUZRKKOSDZ-UHFFFAOYSA-N

> <BindingDB MonomerID>
50527121

> <BindingDB Ligand Name>
CHEMBL4580835

> <Target Name>
DNA repair protein RAD51 homolog 1

> <Target Source Organism According to Curator or DataSource>
Homo sapiens

> <Ki (nM)>


> <IC50 (nM)>


> <Kd (nM)>


> <EC50 (nM)>
 46000

> <kon (M-1-s-1)>


> <koff (s-1)>


> <pH>


> <Temp C>


> <Curation/DataSource>
ChEMBL

> <Article DOI>
10.1021/acs.jmedchem.9b01526

> <BindingDB Entry DOI>
10.7270/Q2SF30MF

> <PMID>
32037829

> <PubChem AID>


> <Patent Number>


> <Authors>
Bagnolini, G; Milano, D; Manerba, M; Schipani, F; Ortega, JA; Gioia, D; Falchi, F; Balboni, A; Farabegoli, F; De Franco, F; Robertson, J; Pellicciari, R; Pallavicini, I; Peri, S; Minucci, S; Girotto, S; Di Stefano, G; Roberti, M; Cavalli, A

> <Date of publication>
3/12/2020

> <Date in BindingDB>
2/25/2021

> <Institution>
Istituto Italiano di Tecnologia

> <Link to Ligand in BindingDB>
http://www.bindingdb.org/bind/chemsearch/marvin/MolStructure.jsp?monomerid=50527121

> <Link to Ligand-Target Pair in BindingDB>
http://www.bindingdb.org/jsp/dbsearch/PrimarySearch_ki.jsp?energyterm=kJ/mole&tag=pol&polymerid=4676&target=DNA+repair+protein+RAD51+homolog+1&column=ki&startPg=0&Increment=50&submit=Search

> <Link to Ligand-Target Pair in BindingDB>
http://www.bindingdb.org/jsp/dbsearch/PrimarySearch_ki.jsp?energyterm=kJ/mole&tag=r21&monomerid=50527121&enzyme=DNA+repair+protein+RAD51+homolog+1&column=ki&startPg=0&Increment=50&submit=Search

> <Ligand HET ID in PDB>


> <PDB ID(s) for Ligand-Target Complex>


> <PubChem CID of Ligand>
155561532

> <PubChem SID of Ligand>
440735703

> <ChEBI ID of Ligand>


> <ChEMBL ID of Ligand>


> <DrugBank ID of Ligand>


> <IUPHAR_GRAC ID of Ligand>


> <KEGG ID of Ligand>


> <ZINC ID of Ligand>


> <Number of Protein Chains in Target (bigger than 1 implies a multichain complex)>
1

> <BindingDB Target Chain Sequence>
MAMQMQLEANADTSVEEESFGPQPISRLEQCGINANDVKKLEEAGFHTVEAVAYAPKKELINIKGISEAKADKILAEAAKLVPMGFTTATEFHQRRSEIIQITTGSKELDKLLQGGIETGSITEMFGEFRTGKTQICHTLAVTCQLPIDRGGGEGKAMYIDTEGTFRPERLLAVAERYGLSGSDVLDNVAYARAFNTDHQTQLLYQASAMMVESRYALLIVDSATALYRTDYSGRGELSARQMHLARFLRMLLRLADEFGVAVVITNQVVAQVDGAAMFAADPKKPIGGNIIAHASTTRLYLRKGRGETRICKIYDSPCLPEAEAMFAINADGVGDAKD

> <PDB ID(s) of Target Chain>
1N0W,5JZC,5NP7,5NWL,8BQ2,8BR2,8BSC

> <UniProt (SwissProt) Recommended Name of Target Chain>
DNA repair protein RAD51 homolog 1

> <UniProt (SwissProt) Entry Name of Target Chain>
RAD51_HUMAN

> <UniProt (SwissProt) Primary ID of Target Chain>
Q06609

> <UniProt (SwissProt) Secondary ID(s) of Target Chain>
B0FXP0 B2R8T6 Q6FHX9 Q6ZNA8 Q9BV60

> <UniProt (SwissProt) Alternative ID(s) of Target Chain>


> <UniProt (TrEMBL) Submitted Name of Target Chain>


> <UniProt (TrEMBL) Entry Name of Target Chain>


> <UniProt (TrEMBL) Primary ID of Target Chain>


> <UniProt (TrEMBL) Secondary ID(s) of Target Chain>


> <UniProt (TrEMBL) Alternative ID(s) of Target Chain>


$$$$
 
     RDKit          2D

 35 39  0  0  0  0  0  0  0  0999 V2000
   15.2120  -25.8204    0.0000 C   0  0  0  0  0  0  0  0  0  0  0  0
   15.2109  -26.6486    0.0000 C   0  0  0  0  0  0  0  0  0  0  0  0
   15.9227  -27.0598    0.0000 C   0  0  0  0  0  0  0  0  0  0  0  0
   15.9209  -25.4052    0.0000 C   0  0  0  0  0  0  0  0  0  0  0  0
   16.6376  -25.8168    0.0000 C   0  0  0  0  0  0  0  0  0  0  0  0
   16.6364  -26.6460    0.0000 C   0  0  0  0  0  0  0  0  0  0  0  0
   17.3506  -27.0574    0.0000 N   0  0  0  0  0  0  0  0  0  0  0  0
   18.0706  -26.6480    0.0000 C   0  0  0  0  0  0  0  0  0  0  0  0
   18.0718  -25.8188    0.0000 C   0  0  0  0  0  0  0  0  0  0  0  0
   17.3530  -25.3988    0.0000 C   0  0  0  0  0  0  0  0  0  0  0  0
   17.3535  -24.5772    0.0000 C   0  0  0  0  0  0  0  0  0  0  0  0
   18.0709  -24.1669    0.0000 C   0  0  0  0  0  0  0  0  0  0  0  0
   18.0713  -23.3419    0.0000 C   0  0  0  0  0  0  0  0  0  0  0  0
   17.3550  -22.9260    0.0000 C   0  0  0  0  0  0  0  0  0  0  0  0
   16.6368  -23.3454    0.0000 C   0  0  0  0  0  0  0  0  0  0  0  0
   16.6400  -24.1691    0.0000 C   0  0  0  0  0  0  0  0  0  0  0  0
   18.7864  -25.4046    0.0000 C   0  0  0  0  0  0  0  0  0  0  0  0
   19.5404  -25.7447    0.0000 C   0  0  0  0  0  0  0  0  0  0  0  0
   20.0917  -25.1313    0.0000 C   0  0  0  0  0  0  0  0  0  0  0  0
   19.6826  -24.4145    0.0000 N   0  0  0  0  0  0  0  0  0  0  0  0
   18.8743  -24.5835    0.0000 N   0  0  0  0  0  0  0  0  0  0  0  0
   18.7852  -27.0609    0.0000 O   0  0  0  0  0  0  0  0  0  0  0  0
   20.0185  -23.6605    0.0000 C   0  0  0  0  0  0  0  0  0  0  0  0
   20.8400  -23.5765    0.0000 C   0  0  0  0  0  0  0  0  0  0  0  0
   19.5371  -22.9904    0.0000 O   0  0  0  0  0  0  0  0  0  0  0  0
   20.9153  -25.1275    0.0000 C   0  0  0  0  0  0  0  0  0  0  0  0
   14.4994  -25.4113    0.0000 Cl  0  0  0  0  0  0  0  0  0  0  0  0
   21.1764  -22.8268    0.0000 C   0  0  0  0  0  0  0  0  0  0  0  0
   21.3286  -25.8411    0.0000 C   0  0  0  0  0  0  0  0  0  0  0  0
   22.1514  -25.8376    0.0000 C   0  0  0  0  0  0  0  0  0  0  0  0
   22.5608  -25.1219    0.0000 C   0  0  0  0  0  0  0  0  0  0  0  0
   22.1413  -24.4082    0.0000 C   0  0  0  0  0  0  0  0  0  0  0  0
   21.3197  -24.4152    0.0000 C   0  0  0  0  0  0  0  0  0  0  0  0
   23.3824  -25.1170    0.0000 O   0  0  0  0  0  0  0  0  0  0  0  0
   23.7975  -25.8262    0.0000 C   0  0  0  0  0  0  0  0  0  0  0  0
  1  2  2  0
  2  3  1  0
  3  6  2  0
  5  4  2  0
  4  1  1  0
  5  6  1  0
  5 10  1  0
  6  7  1  0
  7  8  1  0
  8  9  1  0
  9 10  2  0
 11 12  2  0
 12 13  1  0
 13 14  2  0
 14 15  1  0
 15 16  2  0
 16 11  1  0
 10 11  1  0
 17 18  1  0
 18 19  1  0
 19 20  1  0
 20 21  1  0
 21 17  2  0
  9 17  1  0
  8 22  2  0
 20 23  1  0
 23 24  1  0
 23 25  2  0
 19 26  1  0
  1 27  1  0
 24 28  1  0
 26 29  2  0
 29 30  1  0
 30 31  2  0
 31 32  1  0
 32 33  2  0
 33 26  1  0
 31 34  1  0
 34 35  1  0
M  END
> <From>
www.bindingDB.org

> <BindingDB Reactant_set_id>
51293308

> <Ligand InChI>
InChI=1S/C28H24ClN3O3/c1-3-25(33)32-24(17-9-12-20(35-2)13-10-17)16-23(31-32)27-26(18-7-5-4-6-8-18)21-15-19(29)11-14-22(21)30-28(27)34/h4-15,24H,3,16H2,1-2H3,(H,30,34)

> <Ligand InChI Key>
LAVOKBSCOSIGER-UHFFFAOYSA-N

> <BindingDB MonomerID>
50527107

> <BindingDB Ligand Name>
CHEMBL4450955

> <Target Name>
DNA repair protein RAD51 homolog 1

> <Target Source Organism According to Curator or DataSource>
Homo sapiens

> <Ki (nM)>


> <IC50 (nM)>


> <Kd (nM)>


> <EC50 (nM)>
 18400

> <kon (M-1-s-1)>


> <koff (s-1)>


> <pH>


> <Temp C>


> <Curation/DataSource>
ChEMBL

> <Article DOI>
10.1021/acs.jmedchem.9b01526

> <BindingDB Entry DOI>
10.7270/Q2SF30MF

> <PMID>
32037829

> <PubChem AID>


> <Patent Number>


> <Authors>
Bagnolini, G; Milano, D; Manerba, M; Schipani, F; Ortega, JA; Gioia, D; Falchi, F; Balboni, A; Farabegoli, F; De Franco, F; Robertson, J; Pellicciari, R; Pallavicini, I; Peri, S; Minucci, S; Girotto, S; Di Stefano, G; Roberti, M; Cavalli, A

> <Date of publication>
3/12/2020

> <Date in BindingDB>
2/25/2021

> <Institution>
Istituto Italiano di Tecnologia

> <Link to Ligand in BindingDB>
http://www.bindingdb.org/bind/chemsearch/marvin/MolStructure.jsp?monomerid=50527107

> <Link to Ligand-Target Pair in BindingDB>
http://www.bindingdb.org/jsp/dbsearch/PrimarySearch_ki.jsp?energyterm=kJ/mole&tag=pol&polymerid=4676&target=DNA+repair+protein+RAD51+homolog+1&column=ki&startPg=0&Increment=50&submit=Search

> <Link to Ligand-Target Pair in BindingDB>
http://www.bindingdb.org/jsp/dbsearch/PrimarySearch_ki.jsp?energyterm=kJ/mole&tag=r21&monomerid=50527107&enzyme=DNA+repair+protein+RAD51+homolog+1&column=ki&startPg=0&Increment=50&submit=Search

> <Ligand HET ID in PDB>


> <PDB ID(s) for Ligand-Target Complex>


> <PubChem CID of Ligand>
4246127

> <PubChem SID of Ligand>
440735689

> <ChEBI ID of Ligand>


> <ChEMBL ID of Ligand>


> <DrugBank ID of Ligand>


> <IUPHAR_GRAC ID of Ligand>


> <KEGG ID of Ligand>


> <ZINC ID of Ligand>


> <Number of Protein Chains in Target (bigger than 1 implies a multichain complex)>
1

> <BindingDB Target Chain Sequence>
MAMQMQLEANADTSVEEESFGPQPISRLEQCGINANDVKKLEEAGFHTVEAVAYAPKKELINIKGISEAKADKILAEAAKLVPMGFTTATEFHQRRSEIIQITTGSKELDKLLQGGIETGSITEMFGEFRTGKTQICHTLAVTCQLPIDRGGGEGKAMYIDTEGTFRPERLLAVAERYGLSGSDVLDNVAYARAFNTDHQTQLLYQASAMMVESRYALLIVDSATALYRTDYSGRGELSARQMHLARFLRMLLRLADEFGVAVVITNQVVAQVDGAAMFAADPKKPIGGNIIAHASTTRLYLRKGRGETRICKIYDSPCLPEAEAMFAINADGVGDAKD

> <PDB ID(s) of Target Chain>
1N0W,5JZC,5NP7,5NWL,8BQ2,8BR2,8BSC

> <UniProt (SwissProt) Recommended Name of Target Chain>
DNA repair protein RAD51 homolog 1

> <UniProt (SwissProt) Entry Name of Target Chain>
RAD51_HUMAN

> <UniProt (SwissProt) Primary ID of Target Chain>
Q06609

> <UniProt (SwissProt) Secondary ID(s) of Target Chain>
B0FXP0 B2R8T6 Q6FHX9 Q6ZNA8 Q9BV60

> <UniProt (SwissProt) Alternative ID(s) of Target Chain>


> <UniProt (TrEMBL) Submitted Name of Target Chain>


> <UniProt (TrEMBL) Entry Name of Target Chain>


> <UniProt (TrEMBL) Primary ID of Target Chain>


> <UniProt (TrEMBL) Secondary ID(s) of Target Chain>


> <UniProt (TrEMBL) Alternative ID(s) of Target Chain>


$$$$
 
     RDKit          2D

 43 48  0  0  0  0  0  0  0  0999 V2000
   28.5515   -4.5166    0.0000 C   0  0  0  0  0  0  0  0  0  0  0  0
   28.5502   -5.3451    0.0000 C   0  0  0  0  0  0  0  0  0  0  0  0
   29.2625   -5.7564    0.0000 C   0  0  0  0  0  0  0  0  0  0  0  0
   29.2607   -4.1012    0.0000 C   0  0  0  0  0  0  0  0  0  0  0  0
   29.9775   -4.5130    0.0000 C   0  0  0  0  0  0  0  0  0  0  0  0
   29.9764   -5.3426    0.0000 C   0  0  0  0  0  0  0  0  0  0  0  0
   30.6909   -5.7540    0.0000 N   0  0  0  0  0  0  0  0  0  0  0  0
   31.4111   -5.3446    0.0000 C   0  0  0  0  0  0  0  0  0  0  0  0
   31.4122   -4.5150    0.0000 C   0  0  0  0  0  0  0  0  0  0  0  0
   30.6932   -4.0949    0.0000 C   0  0  0  0  0  0  0  0  0  0  0  0
   30.6937   -3.2729    0.0000 C   0  0  0  0  0  0  0  0  0  0  0  0
   31.4114   -2.8625    0.0000 C   0  0  0  0  0  0  0  0  0  0  0  0
   31.4117   -2.0372    0.0000 C   0  0  0  0  0  0  0  0  0  0  0  0
   30.6952   -1.6212    0.0000 C   0  0  0  0  0  0  0  0  0  0  0  0
   29.9768   -2.0407    0.0000 C   0  0  0  0  0  0  0  0  0  0  0  0
   29.9799   -2.8647    0.0000 C   0  0  0  0  0  0  0  0  0  0  0  0
   32.1271   -4.1006    0.0000 C   0  0  0  0  0  0  0  0  0  0  0  0
   32.8814   -4.4409    0.0000 C   0  0  0  0  0  0  0  0  0  0  0  0
   33.4328   -3.8272    0.0000 C   0  0  0  0  0  0  0  0  0  0  0  0
   33.0235   -3.1102    0.0000 N   0  0  0  0  0  0  0  0  0  0  0  0
   32.2150   -3.2792    0.0000 N   0  0  0  0  0  0  0  0  0  0  0  0
   32.1259   -5.7575    0.0000 O   0  0  0  0  0  0  0  0  0  0  0  0
   33.3597   -2.3559    0.0000 C   0  0  0  0  0  0  0  0  0  0  0  0
   34.1814   -2.2719    0.0000 C   0  0  0  0  0  0  0  0  0  0  0  0
   32.8781   -1.6856    0.0000 O   0  0  0  0  0  0  0  0  0  0  0  0
   34.2568   -3.8234    0.0000 C   0  0  0  0  0  0  0  0  0  0  0  0
   34.6723   -4.5378    0.0000 C   0  0  0  0  0  0  0  0  0  0  0  0
   35.4955   -4.5344    0.0000 C   0  0  0  0  0  0  0  0  0  0  0  0
   35.9028   -3.8179    0.0000 C   0  0  0  0  0  0  0  0  0  0  0  0
   35.4852   -3.1033    0.0000 C   0  0  0  0  0  0  0  0  0  0  0  0
   34.6634   -3.1103    0.0000 C   0  0  0  0  0  0  0  0  0  0  0  0
   27.8386   -4.1073    0.0000 Cl  0  0  0  0  0  0  0  0  0  0  0  0
   34.5179   -1.5219    0.0000 C   0  0  0  0  0  0  0  0  0  0  0  0
   35.3356   -1.4384    0.0000 C   0  0  0  0  0  0  0  0  0  0  0  0
   35.8168   -2.1047    0.0000 O   0  0  0  0  0  0  0  0  0  0  0  0
   35.6721   -0.6884    0.0000 O   0  0  0  0  0  0  0  0  0  0  0  0
   36.7207   -3.8129    0.0000 C   0  0  0  0  0  0  0  0  0  0  0  0
   37.1353   -4.5240    0.0000 C   0  0  0  0  0  0  0  0  0  0  0  0
   37.9565   -4.5194    0.0000 C   0  0  0  0  0  0  0  0  0  0  0  0
   38.3640   -3.8046    0.0000 C   0  0  0  0  0  0  0  0  0  0  0  0
   37.9444   -3.0929    0.0000 C   0  0  0  0  0  0  0  0  0  0  0  0
   37.1245   -3.1009    0.0000 C   0  0  0  0  0  0  0  0  0  0  0  0
   39.1860   -3.7986    0.0000 F   0  0  0  0  0  0  0  0  0  0  0  0
  1  2  2  0
  2  3  1  0
  3  6  2  0
  5  4  2  0
  4  1  1  0
  5  6  1  0
  5 10  1  0
  6  7  1  0
  7  8  1  0
  8  9  1  0
  9 10  2  0
 11 12  2  0
 12 13  1  0
 13 14  2  0
 14 15  1  0
 15 16  2  0
 16 11  1  0
 10 11  1  0
 17 18  1  0
 18 19  1  0
 19 20  1  0
 20 21  1  0
 21 17  2  0
  9 17  1  0
  8 22  2  0
 20 23  1  0
 23 24  1  0
 23 25  2  0
 19 26  1  0
 26 27  2  0
 27 28  1  0
 28 29  2  0
 29 30  1  0
 30 31  2  0
 31 26  1  0
  1 32  1  0
 24 33  1  0
 33 34  1  0
 34 35  1  0
 34 36  2  0
 37 38  2  0
 38 39  1  0
 39 40  2  0
 40 41  1  0
 41 42  2  0
 42 37  1  0
 29 37  1  0
 40 43  1  0
M  END
> <From>
www.bindingDB.org

> <BindingDB Reactant_set_id>
51293309

> <Ligand InChI>
InChI=1S/C34H25ClFN3O4/c35-24-12-15-27-26(18-24)32(23-4-2-1-3-5-23)33(34(43)37-27)28-19-29(39(38-28)30(40)16-17-31(41)42)22-8-6-20(7-9-22)21-10-13-25(36)14-11-21/h1-15,18,29H,16-17,19H2,(H,37,43)(H,41,42)

> <Ligand InChI Key>
SJPXBDDABBXVSM-UHFFFAOYSA-N

> <BindingDB MonomerID>
50527122

> <BindingDB Ligand Name>
CHEMBL4574565

> <Target Name>
DNA repair protein RAD51 homolog 1

> <Target Source Organism According to Curator or DataSource>
Homo sapiens

> <Ki (nM)>


> <IC50 (nM)>


> <Kd (nM)>


> <EC50 (nM)>
 13000

> <kon (M-1-s-1)>


> <koff (s-1)>


> <pH>


> <Temp C>


> <Curation/DataSource>
ChEMBL

> <Article DOI>
10.1021/acs.jmedchem.9b01526

> <BindingDB Entry DOI>
10.7270/Q2SF30MF

> <PMID>
32037829

> <PubChem AID>


> <Patent Number>


> <Authors>
Bagnolini, G; Milano, D; Manerba, M; Schipani, F; Ortega, JA; Gioia, D; Falchi, F; Balboni, A; Farabegoli, F; De Franco, F; Robertson, J; Pellicciari, R; Pallavicini, I; Peri, S; Minucci, S; Girotto, S; Di Stefano, G; Roberti, M; Cavalli, A

> <Date of publication>
3/12/2020

> <Date in BindingDB>
2/25/2021

> <Institution>
Istituto Italiano di Tecnologia

> <Link to Ligand in BindingDB>
http://www.bindingdb.org/bind/chemsearch/marvin/MolStructure.jsp?monomerid=50527122

> <Link to Ligand-Target Pair in BindingDB>
http://www.bindingdb.org/jsp/dbsearch/PrimarySearch_ki.jsp?energyterm=kJ/mole&tag=pol&polymerid=4676&target=DNA+repair+protein+RAD51+homolog+1&column=ki&startPg=0&Increment=50&submit=Search

> <Link to Ligand-Target Pair in BindingDB>
http://www.bindingdb.org/jsp/dbsearch/PrimarySearch_ki.jsp?energyterm=kJ/mole&tag=r21&monomerid=50527122&enzyme=DNA+repair+protein+RAD51+homolog+1&column=ki&startPg=0&Increment=50&submit=Search

> <Ligand HET ID in PDB>


> <PDB ID(s) for Ligand-Target Complex>


> <PubChem CID of Ligand>
155564150

> <PubChem SID of Ligand>
440735704

> <ChEBI ID of Ligand>


> <ChEMBL ID of Ligand>


> <DrugBank ID of Ligand>


> <IUPHAR_GRAC ID of Ligand>


> <KEGG ID of Ligand>


> <ZINC ID of Ligand>


> <Number of Protein Chains in Target (bigger than 1 implies a multichain complex)>
1

> <BindingDB Target Chain Sequence>
MAMQMQLEANADTSVEEESFGPQPISRLEQCGINANDVKKLEEAGFHTVEAVAYAPKKELINIKGISEAKADKILAEAAKLVPMGFTTATEFHQRRSEIIQITTGSKELDKLLQGGIETGSITEMFGEFRTGKTQICHTLAVTCQLPIDRGGGEGKAMYIDTEGTFRPERLLAVAERYGLSGSDVLDNVAYARAFNTDHQTQLLYQASAMMVESRYALLIVDSATALYRTDYSGRGELSARQMHLARFLRMLLRLADEFGVAVVITNQVVAQVDGAAMFAADPKKPIGGNIIAHASTTRLYLRKGRGETRICKIYDSPCLPEAEAMFAINADGVGDAKD

> <PDB ID(s) of Target Chain>
1N0W,5JZC,5NP7,5NWL,8BQ2,8BR2,8BSC

> <UniProt (SwissProt) Recommended Name of Target Chain>
DNA repair protein RAD51 homolog 1

> <UniProt (SwissProt) Entry Name of Target Chain>
RAD51_HUMAN

> <UniProt (SwissProt) Primary ID of Target Chain>
Q06609

> <UniProt (SwissProt) Secondary ID(s) of Target Chain>
B0FXP0 B2R8T6 Q6FHX9 Q6ZNA8 Q9BV60

> <UniProt (SwissProt) Alternative ID(s) of Target Chain>


> <UniProt (TrEMBL) Submitted Name of Target Chain>


> <UniProt (TrEMBL) Entry Name of Target Chain>


> <UniProt (TrEMBL) Primary ID of Target Chain>


> <UniProt (TrEMBL) Secondary ID(s) of Target Chain>


> <UniProt (TrEMBL) Alternative ID(s) of Target Chain>


$$$$

  Mrv0541 11241418212D          

 37 41  0  0  0  0            999 V2000
   11.1406   -5.8749    0.0000 C   0  0  0  0  0  0  0  0  0  0  0  0
   11.1646   -6.6991    0.0000 C   0  0  0  0  0  0  0  0  0  0  0  0
   11.8863   -7.0906    0.0000 C   0  0  0  0  0  0  0  0  0  0  0  0
   12.5897   -6.6591    0.0000 C   0  0  0  0  0  0  0  0  0  0  0  0
   12.5714   -5.8362    0.0000 C   0  0  0  0  0  0  0  0  0  0  0  0
   11.8440   -5.4433    0.0000 C   0  0  0  0  0  0  0  0  0  0  0  0
   13.3171   -7.0519    0.0000 N   0  0  0  0  0  0  0  0  0  0  0  0
   14.0205   -6.6205    0.0000 C   0  0  0  0  0  0  0  0  0  0  0  0
   13.9965   -5.7961    0.0000 C   0  0  0  0  0  0  0  0  0  0  0  0
   13.2748   -5.4046    0.0000 C   0  0  0  0  0  0  0  0  0  0  0  0
   13.2508   -4.5804    0.0000 C   0  0  0  0  0  0  0  0  0  0  0  0
   13.9542   -4.1489    0.0000 C   0  0  0  0  0  0  0  0  0  0  0  0
   13.9337   -3.3224    0.0000 C   0  0  0  0  0  0  0  0  0  0  0  0
   13.2063   -2.9296    0.0000 C   0  0  0  0  0  0  0  0  0  0  0  0
   12.5029   -3.3611    0.0000 C   0  0  0  0  0  0  0  0  0  0  0  0
   12.5269   -4.1854    0.0000 C   0  0  0  0  0  0  0  0  0  0  0  0
   14.6593   -5.3041    0.0000 C   0  0  0  0  0  0  0  0  0  0  0  0
   15.4485   -5.5504    0.0000 C   0  0  0  0  0  0  0  0  0  0  0  0
   15.9276   -4.8788    0.0000 C   0  0  0  0  0  0  0  0  0  0  0  0
   15.4348   -4.2165    0.0000 N   0  0  0  0  0  0  0  0  0  0  0  0
   14.6541   -4.4806    0.0000 N   0  0  0  0  0  0  0  0  0  0  0  0
   16.7519   -4.8677    0.0000 C   0  0  0  0  0  0  0  0  0  0  0  0
   14.7444   -7.0154    0.0000 O   0  0  0  0  0  0  0  0  0  0  0  0
   10.4166   -5.4798    0.0000 Cl  0  0  0  0  0  0  0  0  0  0  0  0
   17.1723   -5.5779    0.0000 C   0  0  0  0  0  0  0  0  0  0  0  0
   17.9958   -5.5726    0.0000 C   0  0  0  0  0  0  0  0  0  0  0  0
   18.4022   -4.8549    0.0000 C   0  0  0  0  0  0  0  0  0  0  0  0
   17.9819   -4.1447    0.0000 C   0  0  0  0  0  0  0  0  0  0  0  0
   17.1584   -4.1499    0.0000 C   0  0  0  0  0  0  0  0  0  0  0  0
   15.8722   -3.5149    0.0000 C   0  0  0  0  0  0  0  0  0  0  0  0
   16.6981   -3.5458    0.0000 C   0  0  0  0  0  0  0  0  0  0  0  0
   15.4852   -2.7860    0.0000 O   0  0  0  0  0  0  0  0  0  0  0  0
   17.1318   -2.8457    0.0000 C   0  0  0  0  0  0  0  0  0  0  0  0
   17.9577   -2.8767    0.0000 C   0  0  0  0  0  0  0  0  0  0  0  0
   18.3951   -2.1750    0.0000 O   0  0  0  0  0  0  0  0  0  0  0  0
   18.3447   -3.6055    0.0000 O   0  0  0  0  0  0  0  0  0  0  0  0
   19.2244   -4.8509    0.0000 F   0  0  0  0  0  0  0  0  0  0  0  0
  1  2  2  0  0  0  0
  2  3  1  0  0  0  0
  3  4  2  0  0  0  0
  4  5  1  0  0  0  0
  5  6  2  0  0  0  0
  6  1  1  0  0  0  0
  4  7  1  0  0  0  0
  7  8  1  0  0  0  0
  8  9  1  0  0  0  0
  9 10  2  0  0  0  0
 10  5  1  0  0  0  0
 10 11  1  0  0  0  0
 11 12  2  0  0  0  0
 12 13  1  0  0  0  0
 13 14  2  0  0  0  0
 14 15  1  0  0  0  0
 15 16  2  0  0  0  0
 16 11  1  0  0  0  0
  9 17  1  0  0  0  0
 17 18  1  0  0  0  0
 18 19  1  0  0  0  0
 19 20  1  0  0  0  0
 20 21  1  0  0  0  0
 21 17  2  0  0  0  0
 19 22  1  0  0  0  0
  8 23  2  0  0  0  0
  1 24  1  0  0  0  0
 22 25  2  0  0  0  0
 25 26  1  0  0  0  0
 26 27  2  0  0  0  0
 27 28  1  0  0  0  0
 28 29  2  0  0  0  0
 29 22  1  0  0  0  0
 20 30  1  0  0  0  0
 30 31  1  0  0  0  0
 30 32  2  0  0  0  0
 31 33  1  0  0  0  0
 33 34  1  0  0  0  0
 34 35  1  0  0  0  0
 34 36  2  0  0  0  0
 27 37  1  0  0  0  0
M  END
> <From>
www.bindingDB.org

> <BindingDB Reactant_set_id>
51293310

> <Ligand InChI>
InChI=1S/C28H21ClFN3O4/c29-18-8-11-21-20(14-18)26(17-4-2-1-3-5-17)27(28(37)31-21)22-15-23(16-6-9-19(30)10-7-16)33(32-22)24(34)12-13-25(35)36/h1-11,14,23H,12-13,15H2,(H,31,37)(H,35,36)

> <Ligand InChI Key>
WLUZUGLVCOSTIO-UHFFFAOYSA-N

> <BindingDB MonomerID>
50440094

> <BindingDB Ligand Name>
CHEMBL2426083

> <Target Name>
DNA repair protein RAD51 homolog 1

> <Target Source Organism According to Curator or DataSource>
Homo sapiens

> <Ki (nM)>


> <IC50 (nM)>


> <Kd (nM)>


> <EC50 (nM)>
 16000

> <kon (M-1-s-1)>


> <koff (s-1)>


> <pH>


> <Temp C>


> <Curation/DataSource>
ChEMBL

> <Article DOI>
10.1021/acs.jmedchem.9b01526

> <BindingDB Entry DOI>
10.7270/Q2SF30MF

> <PMID>
32037829

> <PubChem AID>


> <Patent Number>


> <Authors>
Bagnolini, G; Milano, D; Manerba, M; Schipani, F; Ortega, JA; Gioia, D; Falchi, F; Balboni, A; Farabegoli, F; De Franco, F; Robertson, J; Pellicciari, R; Pallavicini, I; Peri, S; Minucci, S; Girotto, S; Di Stefano, G; Roberti, M; Cavalli, A

> <Date of publication>
3/12/2020

> <Date in BindingDB>
2/25/2021

> <Institution>
Istituto Italiano di Tecnologia

> <Link to Ligand in BindingDB>
http://www.bindingdb.org/bind/chemsearch/marvin/MolStructure.jsp?monomerid=50440094

> <Link to Ligand-Target Pair in BindingDB>
http://www.bindingdb.org/jsp/dbsearch/PrimarySearch_ki.jsp?energyterm=kJ/mole&tag=pol&polymerid=4676&target=DNA+repair+protein+RAD51+homolog+1&column=ki&startPg=0&Increment=50&submit=Search

> <Link to Ligand-Target Pair in BindingDB>
http://www.bindingdb.org/jsp/dbsearch/PrimarySearch_ki.jsp?energyterm=kJ/mole&tag=r21&monomerid=50440094&enzyme=DNA+repair+protein+RAD51+homolog+1&column=ki&startPg=0&Increment=50&submit=Search

> <Ligand HET ID in PDB>


> <PDB ID(s) for Ligand-Target Complex>


> <PubChem CID of Ligand>
16411396

> <PubChem SID of Ligand>
175452411

> <ChEBI ID of Ligand>


> <ChEMBL ID of Ligand>
CHEMBL2426083

> <DrugBank ID of Ligand>


> <IUPHAR_GRAC ID of Ligand>


> <KEGG ID of Ligand>


> <ZINC ID of Ligand>
ZINC19593848

> <Number of Protein Chains in Target (bigger than 1 implies a multichain complex)>
1

> <BindingDB Target Chain Sequence>
MAMQMQLEANADTSVEEESFGPQPISRLEQCGINANDVKKLEEAGFHTVEAVAYAPKKELINIKGISEAKADKILAEAAKLVPMGFTTATEFHQRRSEIIQITTGSKELDKLLQGGIETGSITEMFGEFRTGKTQICHTLAVTCQLPIDRGGGEGKAMYIDTEGTFRPERLLAVAERYGLSGSDVLDNVAYARAFNTDHQTQLLYQASAMMVESRYALLIVDSATALYRTDYSGRGELSARQMHLARFLRMLLRLADEFGVAVVITNQVVAQVDGAAMFAADPKKPIGGNIIAHASTTRLYLRKGRGETRICKIYDSPCLPEAEAMFAINADGVGDAKD

> <PDB ID(s) of Target Chain>
1N0W,5JZC,5NP7,5NWL,8BQ2,8BR2,8BSC

> <UniProt (SwissProt) Recommended Name of Target Chain>
DNA repair protein RAD51 homolog 1

> <UniProt (SwissProt) Entry Name of Target Chain>
RAD51_HUMAN

> <UniProt (SwissProt) Primary ID of Target Chain>
Q06609

> <UniProt (SwissProt) Secondary ID(s) of Target Chain>
B0FXP0 B2R8T6 Q6FHX9 Q6ZNA8 Q9BV60

> <UniProt (SwissProt) Alternative ID(s) of Target Chain>


> <UniProt (TrEMBL) Submitted Name of Target Chain>


> <UniProt (TrEMBL) Entry Name of Target Chain>


> <UniProt (TrEMBL) Primary ID of Target Chain>


> <UniProt (TrEMBL) Secondary ID(s) of Target Chain>


> <UniProt (TrEMBL) Alternative ID(s) of Target Chain>


$$$$
 
     RDKit          2D

 43 48  0  0  0  0  0  0  0  0999 V2000
    1.7088  -12.2495    0.0000 C   0  0  0  0  0  0  0  0  0  0  0  0
    1.7077  -13.0780    0.0000 C   0  0  0  0  0  0  0  0  0  0  0  0
    2.4198  -13.4892    0.0000 C   0  0  0  0  0  0  0  0  0  0  0  0
    2.4179  -11.8341    0.0000 C   0  0  0  0  0  0  0  0  0  0  0  0
    3.1348  -12.2459    0.0000 C   0  0  0  0  0  0  0  0  0  0  0  0
    3.1336  -13.0754    0.0000 C   0  0  0  0  0  0  0  0  0  0  0  0
    3.8480  -13.4868    0.0000 N   0  0  0  0  0  0  0  0  0  0  0  0
    4.5682  -13.0775    0.0000 C   0  0  0  0  0  0  0  0  0  0  0  0
    4.5694  -12.2479    0.0000 C   0  0  0  0  0  0  0  0  0  0  0  0
    3.8503  -11.8278    0.0000 C   0  0  0  0  0  0  0  0  0  0  0  0
    3.8508  -11.0059    0.0000 C   0  0  0  0  0  0  0  0  0  0  0  0
    4.5685  -10.5956    0.0000 C   0  0  0  0  0  0  0  0  0  0  0  0
    4.5689   -9.7703    0.0000 C   0  0  0  0  0  0  0  0  0  0  0  0
    3.8524   -9.3543    0.0000 C   0  0  0  0  0  0  0  0  0  0  0  0
    3.1340   -9.7738    0.0000 C   0  0  0  0  0  0  0  0  0  0  0  0
    3.1372  -10.5978    0.0000 C   0  0  0  0  0  0  0  0  0  0  0  0
    5.2841  -11.8335    0.0000 C   0  0  0  0  0  0  0  0  0  0  0  0
    6.0384  -12.1738    0.0000 C   0  0  0  0  0  0  0  0  0  0  0  0
    6.5898  -11.5602    0.0000 C   0  0  0  0  0  0  0  0  0  0  0  0
    6.1806  -10.8432    0.0000 N   0  0  0  0  0  0  0  0  0  0  0  0
    5.3722  -11.0122    0.0000 N   0  0  0  0  0  0  0  0  0  0  0  0
    5.2829  -13.4904    0.0000 O   0  0  0  0  0  0  0  0  0  0  0  0
    6.5166  -10.0890    0.0000 C   0  0  0  0  0  0  0  0  0  0  0  0
    7.3383  -10.0050    0.0000 C   0  0  0  0  0  0  0  0  0  0  0  0
    6.0350   -9.4188    0.0000 O   0  0  0  0  0  0  0  0  0  0  0  0
    7.4136  -11.5564    0.0000 C   0  0  0  0  0  0  0  0  0  0  0  0
    7.8291  -12.2708    0.0000 C   0  0  0  0  0  0  0  0  0  0  0  0
    8.6522  -12.2673    0.0000 C   0  0  0  0  0  0  0  0  0  0  0  0
    9.0596  -11.5508    0.0000 C   0  0  0  0  0  0  0  0  0  0  0  0
    8.6420  -10.8363    0.0000 C   0  0  0  0  0  0  0  0  0  0  0  0
    7.8203  -10.8434    0.0000 C   0  0  0  0  0  0  0  0  0  0  0  0
    0.9960  -11.8403    0.0000 Cl  0  0  0  0  0  0  0  0  0  0  0  0
    7.6747   -9.2551    0.0000 C   0  0  0  0  0  0  0  0  0  0  0  0
    8.4924   -9.1715    0.0000 C   0  0  0  0  0  0  0  0  0  0  0  0
    8.9736   -9.8378    0.0000 O   0  0  0  0  0  0  0  0  0  0  0  0
    8.8288   -8.4216    0.0000 O   0  0  0  0  0  0  0  0  0  0  0  0
    9.8773  -11.5459    0.0000 C   0  0  0  0  0  0  0  0  0  0  0  0
   10.2920  -12.2569    0.0000 C   0  0  0  0  0  0  0  0  0  0  0  0
   11.1131  -12.2523    0.0000 C   0  0  0  0  0  0  0  0  0  0  0  0
   11.5206  -11.5375    0.0000 C   0  0  0  0  0  0  0  0  0  0  0  0
   11.1009  -10.8260    0.0000 C   0  0  0  0  0  0  0  0  0  0  0  0
   10.2813  -10.8340    0.0000 C   0  0  0  0  0  0  0  0  0  0  0  0
   12.3425  -11.5316    0.0000 Cl  0  0  0  0  0  0  0  0  0  0  0  0
  1  2  2  0
  2  3  1  0
  3  6  2  0
  5  4  2  0
  4  1  1  0
  5  6  1  0
  5 10  1  0
  6  7  1  0
  7  8  1  0
  8  9  1  0
  9 10  2  0
 11 12  2  0
 12 13  1  0
 13 14  2  0
 14 15  1  0
 15 16  2  0
 16 11  1  0
 10 11  1  0
 17 18  1  0
 18 19  1  0
 19 20  1  0
 20 21  1  0
 21 17  2  0
  9 17  1  0
  8 22  2  0
 20 23  1  0
 23 24  1  0
 23 25  2  0
 19 26  1  0
 26 27  2  0
 27 28  1  0
 28 29  2  0
 29 30  1  0
 30 31  2  0
 31 26  1  0
  1 32  1  0
 24 33  1  0
 33 34  1  0
 34 35  1  0
 34 36  2  0
 37 38  2  0
 38 39  1  0
 39 40  2  0
 40 41  1  0
 41 42  2  0
 42 37  1  0
 29 37  1  0
 40 43  1  0
M  END
> <From>
www.bindingDB.org

> <BindingDB Reactant_set_id>
51293311

> <Ligand InChI>
InChI=1S/C34H25Cl2N3O4/c35-24-12-10-21(11-13-24)20-6-8-22(9-7-20)29-19-28(38-39(29)30(40)16-17-31(41)42)33-32(23-4-2-1-3-5-23)26-18-25(36)14-15-27(26)37-34(33)43/h1-15,18,29H,16-17,19H2,(H,37,43)(H,41,42)

> <Ligand InChI Key>
VHFGOWWAWAKKBK-UHFFFAOYSA-N

> <BindingDB MonomerID>
50527123

> <BindingDB Ligand Name>
CHEMBL4437075

> <Target Name>
DNA repair protein RAD51 homolog 1

> <Target Source Organism According to Curator or DataSource>
Homo sapiens

> <Ki (nM)>


> <IC50 (nM)>


> <Kd (nM)>


> <EC50 (nM)>
 25000

> <kon (M-1-s-1)>


> <koff (s-1)>


> <pH>


> <Temp C>


> <Curation/DataSource>
ChEMBL

> <Article DOI>
10.1021/acs.jmedchem.9b01526

> <BindingDB Entry DOI>
10.7270/Q2SF30MF

> <PMID>
32037829

> <PubChem AID>


> <Patent Number>


> <Authors>
Bagnolini, G; Milano, D; Manerba, M; Schipani, F; Ortega, JA; Gioia, D; Falchi, F; Balboni, A; Farabegoli, F; De Franco, F; Robertson, J; Pellicciari, R; Pallavicini, I; Peri, S; Minucci, S; Girotto, S; Di Stefano, G; Roberti, M; Cavalli, A

> <Date of publication>
3/12/2020

> <Date in BindingDB>
2/25/2021

> <Institution>
Istituto Italiano di Tecnologia

> <Link to Ligand in BindingDB>
http://www.bindingdb.org/bind/chemsearch/marvin/MolStructure.jsp?monomerid=50527123

> <Link to Ligand-Target Pair in BindingDB>
http://www.bindingdb.org/jsp/dbsearch/PrimarySearch_ki.jsp?energyterm=kJ/mole&tag=pol&polymerid=4676&target=DNA+repair+protein+RAD51+homolog+1&column=ki&startPg=0&Increment=50&submit=Search

> <Link to Ligand-Target Pair in BindingDB>
http://www.bindingdb.org/jsp/dbsearch/PrimarySearch_ki.jsp?energyterm=kJ/mole&tag=r21&monomerid=50527123&enzyme=DNA+repair+protein+RAD51+homolog+1&column=ki&startPg=0&Increment=50&submit=Search

> <Ligand HET ID in PDB>


> <PDB ID(s) for Ligand-Target Complex>


> <PubChem CID of Ligand>
155512370

> <PubChem SID of Ligand>
440735705

> <ChEBI ID of Ligand>


> <ChEMBL ID of Ligand>


> <DrugBank ID of Ligand>


> <IUPHAR_GRAC ID of Ligand>


> <KEGG ID of Ligand>


> <ZINC ID of Ligand>


> <Number of Protein Chains in Target (bigger than 1 implies a multichain complex)>
1

> <BindingDB Target Chain Sequence>
MAMQMQLEANADTSVEEESFGPQPISRLEQCGINANDVKKLEEAGFHTVEAVAYAPKKELINIKGISEAKADKILAEAAKLVPMGFTTATEFHQRRSEIIQITTGSKELDKLLQGGIETGSITEMFGEFRTGKTQICHTLAVTCQLPIDRGGGEGKAMYIDTEGTFRPERLLAVAERYGLSGSDVLDNVAYARAFNTDHQTQLLYQASAMMVESRYALLIVDSATALYRTDYSGRGELSARQMHLARFLRMLLRLADEFGVAVVITNQVVAQVDGAAMFAADPKKPIGGNIIAHASTTRLYLRKGRGETRICKIYDSPCLPEAEAMFAINADGVGDAKD

> <PDB ID(s) of Target Chain>
1N0W,5JZC,5NP7,5NWL,8BQ2,8BR2,8BSC

> <UniProt (SwissProt) Recommended Name of Target Chain>
DNA repair protein RAD51 homolog 1

> <UniProt (SwissProt) Entry Name of Target Chain>
RAD51_HUMAN

> <UniProt (SwissProt) Primary ID of Target Chain>
Q06609

> <UniProt (SwissProt) Secondary ID(s) of Target Chain>
B0FXP0 B2R8T6 Q6FHX9 Q6ZNA8 Q9BV60

> <UniProt (SwissProt) Alternative ID(s) of Target Chain>


> <UniProt (TrEMBL) Submitted Name of Target Chain>


> <UniProt (TrEMBL) Entry Name of Target Chain>


> <UniProt (TrEMBL) Primary ID of Target Chain>


> <UniProt (TrEMBL) Secondary ID(s) of Target Chain>


> <UniProt (TrEMBL) Alternative ID(s) of Target Chain>


$$$$
 
     RDKit          2D

 33 37  0  0  0  0  0  0  0  0999 V2000
   15.6995   -3.9687    0.0000 C   0  0  0  0  0  0  0  0  0  0  0  0
   15.6983   -4.7964    0.0000 C   0  0  0  0  0  0  0  0  0  0  0  0
   16.4098   -5.2072    0.0000 C   0  0  0  0  0  0  0  0  0  0  0  0
   16.4080   -3.5537    0.0000 C   0  0  0  0  0  0  0  0  0  0  0  0
   17.1241   -3.9651    0.0000 C   0  0  0  0  0  0  0  0  0  0  0  0
   17.1230   -4.7939    0.0000 C   0  0  0  0  0  0  0  0  0  0  0  0
   17.8367   -5.2048    0.0000 N   0  0  0  0  0  0  0  0  0  0  0  0
   18.5562   -4.7959    0.0000 C   0  0  0  0  0  0  0  0  0  0  0  0
   18.5574   -3.9671    0.0000 C   0  0  0  0  0  0  0  0  0  0  0  0
   17.8390   -3.5474    0.0000 C   0  0  0  0  0  0  0  0  0  0  0  0
   17.8395   -2.7263    0.0000 C   0  0  0  0  0  0  0  0  0  0  0  0
   18.5565   -2.3164    0.0000 C   0  0  0  0  0  0  0  0  0  0  0  0
   18.5568   -1.4918    0.0000 C   0  0  0  0  0  0  0  0  0  0  0  0
   17.8411   -1.0763    0.0000 C   0  0  0  0  0  0  0  0  0  0  0  0
   17.1234   -1.4954    0.0000 C   0  0  0  0  0  0  0  0  0  0  0  0
   17.1265   -2.3185    0.0000 C   0  0  0  0  0  0  0  0  0  0  0  0
   19.2715   -3.5531    0.0000 C   0  0  0  0  0  0  0  0  0  0  0  0
   20.0250   -3.8930    0.0000 C   0  0  0  0  0  0  0  0  0  0  0  0
   20.5759   -3.2800    0.0000 C   0  0  0  0  0  0  0  0  0  0  0  0
   20.1670   -2.5637    0.0000 N   0  0  0  0  0  0  0  0  0  0  0  0
   19.3593   -2.7326    0.0000 N   0  0  0  0  0  0  0  0  0  0  0  0
   19.2703   -5.2084    0.0000 O   0  0  0  0  0  0  0  0  0  0  0  0
   20.5028   -1.8103    0.0000 C   0  0  0  0  0  0  0  0  0  0  0  0
   21.3237   -1.7263    0.0000 C   0  0  0  0  0  0  0  0  0  0  0  0
   20.0217   -1.1407    0.0000 O   0  0  0  0  0  0  0  0  0  0  0  0
   21.3990   -3.2762    0.0000 C   0  0  0  0  0  0  0  0  0  0  0  0
   21.8141   -3.9900    0.0000 C   0  0  0  0  0  0  0  0  0  0  0  0
   22.6364   -3.9865    0.0000 C   0  0  0  0  0  0  0  0  0  0  0  0
   23.0434   -3.2707    0.0000 C   0  0  0  0  0  0  0  0  0  0  0  0
   22.6262   -2.5569    0.0000 C   0  0  0  0  0  0  0  0  0  0  0  0
   21.8052   -2.5639    0.0000 C   0  0  0  0  0  0  0  0  0  0  0  0
   14.9874   -3.5599    0.0000 Cl  0  0  0  0  0  0  0  0  0  0  0  0
   23.8645   -3.2657    0.0000 F   0  0  0  0  0  0  0  0  0  0  0  0
  1  2  2  0
  2  3  1  0
  3  6  2  0
  5  4  2  0
  4  1  1  0
  5  6  1  0
  5 10  1  0
  6  7  1  0
  7  8  1  0
  8  9  1  0
  9 10  2  0
 11 12  2  0
 12 13  1  0
 13 14  2  0
 14 15  1  0
 15 16  2  0
 16 11  1  0
 10 11  1  0
 17 18  1  0
 18 19  1  0
 19 20  1  0
 20 21  1  0
 21 17  2  0
  9 17  1  0
  8 22  2  0
 20 23  1  0
 23 24  1  0
 23 25  2  0
 19 26  1  0
 26 27  2  0
 27 28  1  0
 28 29  2  0
 29 30  1  0
 30 31  2  0
 31 26  1  0
  1 32  1  0
 29 33  1  0
M  END
> <From>
www.bindingDB.org

> <BindingDB Reactant_set_id>
51293312

> <Ligand InChI>
InChI=1S/C26H19ClFN3O2/c1-15(32)31-23(16-7-10-19(28)11-8-16)14-22(30-31)25-24(17-5-3-2-4-6-17)20-13-18(27)9-12-21(20)29-26(25)33/h2-13,23H,14H2,1H3,(H,29,33)

> <Ligand InChI Key>
SJNNDJIFYBLCAF-UHFFFAOYSA-N

> <BindingDB MonomerID>
50527124

> <BindingDB Ligand Name>
CHEMBL4436545

> <Target Name>
DNA repair protein RAD51 homolog 1

> <Target Source Organism According to Curator or DataSource>
Homo sapiens

> <Ki (nM)>


> <IC50 (nM)>


> <Kd (nM)>


> <EC50 (nM)>
 50000

> <kon (M-1-s-1)>


> <koff (s-1)>


> <pH>


> <Temp C>


> <Curation/DataSource>
ChEMBL

> <Article DOI>
10.1021/acs.jmedchem.9b01526

> <BindingDB Entry DOI>
10.7270/Q2SF30MF

> <PMID>
32037829

> <PubChem AID>


> <Patent Number>


> <Authors>
Bagnolini, G; Milano, D; Manerba, M; Schipani, F; Ortega, JA; Gioia, D; Falchi, F; Balboni, A; Farabegoli, F; De Franco, F; Robertson, J; Pellicciari, R; Pallavicini, I; Peri, S; Minucci, S; Girotto, S; Di Stefano, G; Roberti, M; Cavalli, A

> <Date of publication>
3/12/2020

> <Date in BindingDB>
2/25/2021

> <Institution>
Istituto Italiano di Tecnologia

> <Link to Ligand in BindingDB>
http://www.bindingdb.org/bind/chemsearch/marvin/MolStructure.jsp?monomerid=50527124

> <Link to Ligand-Target Pair in BindingDB>
http://www.bindingdb.org/jsp/dbsearch/PrimarySearch_ki.jsp?energyterm=kJ/mole&tag=pol&polymerid=4676&target=DNA+repair+protein+RAD51+homolog+1&column=ki&startPg=0&Increment=50&submit=Search

> <Link to Ligand-Target Pair in BindingDB>
http://www.bindingdb.org/jsp/dbsearch/PrimarySearch_ki.jsp?energyterm=kJ/mole&tag=r21&monomerid=50527124&enzyme=DNA+repair+protein+RAD51+homolog+1&column=ki&startPg=0&Increment=50&submit=Search

> <Ligand HET ID in PDB>


> <PDB ID(s) for Ligand-Target Complex>


> <PubChem CID of Ligand>
3300756

> <PubChem SID of Ligand>
440735706

> <ChEBI ID of Ligand>


> <ChEMBL ID of Ligand>


> <DrugBank ID of Ligand>


> <IUPHAR_GRAC ID of Ligand>


> <KEGG ID of Ligand>


> <ZINC ID of Ligand>


> <Number of Protein Chains in Target (bigger than 1 implies a multichain complex)>
1

> <BindingDB Target Chain Sequence>
MAMQMQLEANADTSVEEESFGPQPISRLEQCGINANDVKKLEEAGFHTVEAVAYAPKKELINIKGISEAKADKILAEAAKLVPMGFTTATEFHQRRSEIIQITTGSKELDKLLQGGIETGSITEMFGEFRTGKTQICHTLAVTCQLPIDRGGGEGKAMYIDTEGTFRPERLLAVAERYGLSGSDVLDNVAYARAFNTDHQTQLLYQASAMMVESRYALLIVDSATALYRTDYSGRGELSARQMHLARFLRMLLRLADEFGVAVVITNQVVAQVDGAAMFAADPKKPIGGNIIAHASTTRLYLRKGRGETRICKIYDSPCLPEAEAMFAINADGVGDAKD

> <PDB ID(s) of Target Chain>
1N0W,5JZC,5NP7,5NWL,8BQ2,8BR2,8BSC

> <UniProt (SwissProt) Recommended Name of Target Chain>
DNA repair protein RAD51 homolog 1

> <UniProt (SwissProt) Entry Name of Target Chain>
RAD51_HUMAN

> <UniProt (SwissProt) Primary ID of Target Chain>
Q06609

> <UniProt (SwissProt) Secondary ID(s) of Target Chain>
B0FXP0 B2R8T6 Q6FHX9 Q6ZNA8 Q9BV60

> <UniProt (SwissProt) Alternative ID(s) of Target Chain>


> <UniProt (TrEMBL) Submitted Name of Target Chain>


> <UniProt (TrEMBL) Entry Name of Target Chain>


> <UniProt (TrEMBL) Primary ID of Target Chain>


> <UniProt (TrEMBL) Secondary ID(s) of Target Chain>


> <UniProt (TrEMBL) Alternative ID(s) of Target Chain>


$$$$
 
     RDKit          2D

 34 38  0  0  0  0  0  0  0  0999 V2000
    2.7413  -25.7219    0.0000 C   0  0  0  0  0  0  0  0  0  0  0  0
    2.7401  -26.5499    0.0000 C   0  0  0  0  0  0  0  0  0  0  0  0
    3.4520  -26.9611    0.0000 C   0  0  0  0  0  0  0  0  0  0  0  0
    3.4502  -25.3067    0.0000 C   0  0  0  0  0  0  0  0  0  0  0  0
    4.1667  -25.7183    0.0000 C   0  0  0  0  0  0  0  0  0  0  0  0
    4.1656  -26.5474    0.0000 C   0  0  0  0  0  0  0  0  0  0  0  0
    4.8797  -26.9587    0.0000 N   0  0  0  0  0  0  0  0  0  0  0  0
    5.5996  -26.5494    0.0000 C   0  0  0  0  0  0  0  0  0  0  0  0
    5.6008  -25.7203    0.0000 C   0  0  0  0  0  0  0  0  0  0  0  0
    4.8820  -25.3002    0.0000 C   0  0  0  0  0  0  0  0  0  0  0  0
    4.8825  -24.4788    0.0000 C   0  0  0  0  0  0  0  0  0  0  0  0
    5.5999  -24.0686    0.0000 C   0  0  0  0  0  0  0  0  0  0  0  0
    5.6002  -23.2436    0.0000 C   0  0  0  0  0  0  0  0  0  0  0  0
    4.8840  -22.8278    0.0000 C   0  0  0  0  0  0  0  0  0  0  0  0
    4.1660  -23.2472    0.0000 C   0  0  0  0  0  0  0  0  0  0  0  0
    4.1691  -24.0708    0.0000 C   0  0  0  0  0  0  0  0  0  0  0  0
    6.3153  -25.3061    0.0000 C   0  0  0  0  0  0  0  0  0  0  0  0
    7.0692  -25.6461    0.0000 C   0  0  0  0  0  0  0  0  0  0  0  0
    7.6204  -25.0327    0.0000 C   0  0  0  0  0  0  0  0  0  0  0  0
    7.2114  -24.3161    0.0000 N   0  0  0  0  0  0  0  0  0  0  0  0
    6.4031  -24.4851    0.0000 N   0  0  0  0  0  0  0  0  0  0  0  0
    6.3141  -26.9622    0.0000 O   0  0  0  0  0  0  0  0  0  0  0  0
    7.5473  -23.5622    0.0000 C   0  0  0  0  0  0  0  0  0  0  0  0
    8.3686  -23.4782    0.0000 C   0  0  0  0  0  0  0  0  0  0  0  0
    7.0659  -22.8922    0.0000 O   0  0  0  0  0  0  0  0  0  0  0  0
    8.4439  -25.0289    0.0000 C   0  0  0  0  0  0  0  0  0  0  0  0
    2.0288  -25.3128    0.0000 Cl  0  0  0  0  0  0  0  0  0  0  0  0
    8.7049  -22.7286    0.0000 C   0  0  0  0  0  0  0  0  0  0  0  0
    8.8571  -25.7426    0.0000 C   0  0  0  0  0  0  0  0  0  0  0  0
    9.6799  -25.7391    0.0000 C   0  0  0  0  0  0  0  0  0  0  0  0
   10.0892  -25.0235    0.0000 C   0  0  0  0  0  0  0  0  0  0  0  0
    9.6697  -24.3098    0.0000 C   0  0  0  0  0  0  0  0  0  0  0  0
    8.8483  -24.3168    0.0000 C   0  0  0  0  0  0  0  0  0  0  0  0
   10.9108  -25.0185    0.0000 Br  0  0  0  0  0  0  0  0  0  0  0  0
  1  2  2  0
  2  3  1  0
  3  6  2  0
  5  4  2  0
  4  1  1  0
  5  6  1  0
  5 10  1  0
  6  7  1  0
  7  8  1  0
  8  9  1  0
  9 10  2  0
 11 12  2  0
 12 13  1  0
 13 14  2  0
 14 15  1  0
 15 16  2  0
 16 11  1  0
 10 11  1  0
 17 18  1  0
 18 19  1  0
 19 20  1  0
 20 21  1  0
 21 17  2  0
  9 17  1  0
  8 22  2  0
 20 23  1  0
 23 24  1  0
 23 25  2  0
 19 26  1  0
  1 27  1  0
 24 28  1  0
 26 29  2  0
 29 30  1  0
 30 31  2  0
 31 32  1  0
 32 33  2  0
 33 26  1  0
 31 34  1  0
M  END
> <From>
www.bindingDB.org

> <BindingDB Reactant_set_id>
51293313

> <Ligand InChI>
InChI=1S/C27H21BrClN3O2/c1-2-24(33)32-23(16-8-10-18(28)11-9-16)15-22(31-32)26-25(17-6-4-3-5-7-17)20-14-19(29)12-13-21(20)30-27(26)34/h3-14,23H,2,15H2,1H3,(H,30,34)

> <Ligand InChI Key>
PLQPZKCOFKKKIV-UHFFFAOYSA-N

> <BindingDB MonomerID>
50527125

> <BindingDB Ligand Name>
CHEMBL4444995

> <Target Name>
DNA repair protein RAD51 homolog 1

> <Target Source Organism According to Curator or DataSource>
Homo sapiens

> <Ki (nM)>


> <IC50 (nM)>


> <Kd (nM)>


> <EC50 (nM)>
 19000

> <kon (M-1-s-1)>


> <koff (s-1)>


> <pH>


> <Temp C>


> <Curation/DataSource>
ChEMBL

> <Article DOI>
10.1021/acs.jmedchem.9b01526

> <BindingDB Entry DOI>
10.7270/Q2SF30MF

> <PMID>
32037829

> <PubChem AID>


> <Patent Number>


> <Authors>
Bagnolini, G; Milano, D; Manerba, M; Schipani, F; Ortega, JA; Gioia, D; Falchi, F; Balboni, A; Farabegoli, F; De Franco, F; Robertson, J; Pellicciari, R; Pallavicini, I; Peri, S; Minucci, S; Girotto, S; Di Stefano, G; Roberti, M; Cavalli, A

> <Date of publication>
3/12/2020

> <Date in BindingDB>
2/25/2021

> <Institution>
Istituto Italiano di Tecnologia

> <Link to Ligand in BindingDB>
http://www.bindingdb.org/bind/chemsearch/marvin/MolStructure.jsp?monomerid=50527125

> <Link to Ligand-Target Pair in BindingDB>
http://www.bindingdb.org/jsp/dbsearch/PrimarySearch_ki.jsp?energyterm=kJ/mole&tag=pol&polymerid=4676&target=DNA+repair+protein+RAD51+homolog+1&column=ki&startPg=0&Increment=50&submit=Search

> <Link to Ligand-Target Pair in BindingDB>
http://www.bindingdb.org/jsp/dbsearch/PrimarySearch_ki.jsp?energyterm=kJ/mole&tag=r21&monomerid=50527125&enzyme=DNA+repair+protein+RAD51+homolog+1&column=ki&startPg=0&Increment=50&submit=Search

> <Ligand HET ID in PDB>


> <PDB ID(s) for Ligand-Target Complex>


> <PubChem CID of Ligand>
155517576

> <PubChem SID of Ligand>
440735707

> <ChEBI ID of Ligand>


> <ChEMBL ID of Ligand>


> <DrugBank ID of Ligand>


> <IUPHAR_GRAC ID of Ligand>


> <KEGG ID of Ligand>


> <ZINC ID of Ligand>


> <Number of Protein Chains in Target (bigger than 1 implies a multichain complex)>
1

> <BindingDB Target Chain Sequence>
MAMQMQLEANADTSVEEESFGPQPISRLEQCGINANDVKKLEEAGFHTVEAVAYAPKKELINIKGISEAKADKILAEAAKLVPMGFTTATEFHQRRSEIIQITTGSKELDKLLQGGIETGSITEMFGEFRTGKTQICHTLAVTCQLPIDRGGGEGKAMYIDTEGTFRPERLLAVAERYGLSGSDVLDNVAYARAFNTDHQTQLLYQASAMMVESRYALLIVDSATALYRTDYSGRGELSARQMHLARFLRMLLRLADEFGVAVVITNQVVAQVDGAAMFAADPKKPIGGNIIAHASTTRLYLRKGRGETRICKIYDSPCLPEAEAMFAINADGVGDAKD

> <PDB ID(s) of Target Chain>
1N0W,5JZC,5NP7,5NWL,8BQ2,8BR2,8BSC

> <UniProt (SwissProt) Recommended Name of Target Chain>
DNA repair protein RAD51 homolog 1

> <UniProt (SwissProt) Entry Name of Target Chain>
RAD51_HUMAN

> <UniProt (SwissProt) Primary ID of Target Chain>
Q06609

> <UniProt (SwissProt) Secondary ID(s) of Target Chain>
B0FXP0 B2R8T6 Q6FHX9 Q6ZNA8 Q9BV60

> <UniProt (SwissProt) Alternative ID(s) of Target Chain>


> <UniProt (TrEMBL) Submitted Name of Target Chain>


> <UniProt (TrEMBL) Entry Name of Target Chain>


> <UniProt (TrEMBL) Primary ID of Target Chain>


> <UniProt (TrEMBL) Secondary ID(s) of Target Chain>


> <UniProt (TrEMBL) Alternative ID(s) of Target Chain>


$$$$
 
     RDKit          2D

 39 44  0  0  0  0  0  0  0  0999 V2000
    1.3557  -20.3408    0.0000 C   0  0  0  0  0  0  0  0  0  0  0  0
    1.3545  -21.1691    0.0000 C   0  0  0  0  0  0  0  0  0  0  0  0
    2.0666  -21.5803    0.0000 C   0  0  0  0  0  0  0  0  0  0  0  0
    2.0648  -19.9255    0.0000 C   0  0  0  0  0  0  0  0  0  0  0  0
    2.7815  -20.3371    0.0000 C   0  0  0  0  0  0  0  0  0  0  0  0
    2.7804  -21.1666    0.0000 C   0  0  0  0  0  0  0  0  0  0  0  0
    3.4947  -21.5779    0.0000 N   0  0  0  0  0  0  0  0  0  0  0  0
    4.2147  -21.1686    0.0000 C   0  0  0  0  0  0  0  0  0  0  0  0
    4.2159  -20.3392    0.0000 C   0  0  0  0  0  0  0  0  0  0  0  0
    3.4970  -19.9191    0.0000 C   0  0  0  0  0  0  0  0  0  0  0  0
    3.4975  -19.0973    0.0000 C   0  0  0  0  0  0  0  0  0  0  0  0
    4.2150  -18.6871    0.0000 C   0  0  0  0  0  0  0  0  0  0  0  0
    4.2154  -17.8620    0.0000 C   0  0  0  0  0  0  0  0  0  0  0  0
    3.4990  -17.4460    0.0000 C   0  0  0  0  0  0  0  0  0  0  0  0
    2.7808  -17.8655    0.0000 C   0  0  0  0  0  0  0  0  0  0  0  0
    2.7839  -18.6893    0.0000 C   0  0  0  0  0  0  0  0  0  0  0  0
    4.9306  -19.9249    0.0000 C   0  0  0  0  0  0  0  0  0  0  0  0
    5.6847  -20.2650    0.0000 C   0  0  0  0  0  0  0  0  0  0  0  0
    6.2360  -19.6515    0.0000 C   0  0  0  0  0  0  0  0  0  0  0  0
    5.8268  -18.9346    0.0000 N   0  0  0  0  0  0  0  0  0  0  0  0
    5.0184  -19.1037    0.0000 N   0  0  0  0  0  0  0  0  0  0  0  0
    4.9293  -21.5815    0.0000 O   0  0  0  0  0  0  0  0  0  0  0  0
    6.1628  -18.1805    0.0000 C   0  0  0  0  0  0  0  0  0  0  0  0
    6.9844  -18.0966    0.0000 C   0  0  0  0  0  0  0  0  0  0  0  0
    5.6813  -17.5105    0.0000 O   0  0  0  0  0  0  0  0  0  0  0  0
    7.0597  -19.6477    0.0000 C   0  0  0  0  0  0  0  0  0  0  0  0
    7.4751  -20.3621    0.0000 C   0  0  0  0  0  0  0  0  0  0  0  0
    8.2981  -20.3586    0.0000 C   0  0  0  0  0  0  0  0  0  0  0  0
    8.7054  -19.6422    0.0000 C   0  0  0  0  0  0  0  0  0  0  0  0
    8.2879  -18.9278    0.0000 C   0  0  0  0  0  0  0  0  0  0  0  0
    7.4663  -18.9348    0.0000 C   0  0  0  0  0  0  0  0  0  0  0  0
    0.6431  -19.9316    0.0000 Cl  0  0  0  0  0  0  0  0  0  0  0  0
    9.5230  -19.6372    0.0000 C   0  0  0  0  0  0  0  0  0  0  0  0
    9.9375  -20.3481    0.0000 C   0  0  0  0  0  0  0  0  0  0  0  0
   10.7586  -20.3436    0.0000 C   0  0  0  0  0  0  0  0  0  0  0  0
   11.1660  -19.6289    0.0000 C   0  0  0  0  0  0  0  0  0  0  0  0
   10.7464  -18.9173    0.0000 C   0  0  0  0  0  0  0  0  0  0  0  0
    9.9269  -18.9255    0.0000 C   0  0  0  0  0  0  0  0  0  0  0  0
   11.9878  -19.6230    0.0000 Br  0  0  0  0  0  0  0  0  0  0  0  0
  1  2  2  0
  2  3  1  0
  3  6  2  0
  5  4  2  0
  4  1  1  0
  5  6  1  0
  5 10  1  0
  6  7  1  0
  7  8  1  0
  8  9  1  0
  9 10  2  0
 11 12  2  0
 12 13  1  0
 13 14  2  0
 14 15  1  0
 15 16  2  0
 16 11  1  0
 10 11  1  0
 17 18  1  0
 18 19  1  0
 19 20  1  0
 20 21  1  0
 21 17  2  0
  9 17  1  0
  8 22  2  0
 20 23  1  0
 23 24  1  0
 23 25  2  0
 19 26  1  0
 26 27  2  0
 27 28  1  0
 28 29  2  0
 29 30  1  0
 30 31  2  0
 31 26  1  0
  1 32  1  0
 33 34  2  0
 34 35  1  0
 35 36  2  0
 36 37  1  0
 37 38  2  0
 38 33  1  0
 29 33  1  0
 36 39  1  0
M  END
> <From>
www.bindingDB.org

> <BindingDB Reactant_set_id>
51293314

> <Ligand InChI>
InChI=1S/C32H23BrClN3O2/c1-19(38)37-29(22-9-7-20(8-10-22)21-11-13-24(33)14-12-21)18-28(36-37)31-30(23-5-3-2-4-6-23)26-17-25(34)15-16-27(26)35-32(31)39/h2-17,29H,18H2,1H3,(H,35,39)

> <Ligand InChI Key>
XBIGQFKRNVLKKK-UHFFFAOYSA-N

> <BindingDB MonomerID>
50527126

> <BindingDB Ligand Name>
CHEMBL4463701

> <Target Name>
DNA repair protein RAD51 homolog 1

> <Target Source Organism According to Curator or DataSource>
Homo sapiens

> <Ki (nM)>


> <IC50 (nM)>


> <Kd (nM)>


> <EC50 (nM)>
 70000

> <kon (M-1-s-1)>


> <koff (s-1)>


> <pH>


> <Temp C>


> <Curation/DataSource>
ChEMBL

> <Article DOI>
10.1021/acs.jmedchem.9b01526

> <BindingDB Entry DOI>
10.7270/Q2SF30MF

> <PMID>
32037829

> <PubChem AID>


> <Patent Number>


> <Authors>
Bagnolini, G; Milano, D; Manerba, M; Schipani, F; Ortega, JA; Gioia, D; Falchi, F; Balboni, A; Farabegoli, F; De Franco, F; Robertson, J; Pellicciari, R; Pallavicini, I; Peri, S; Minucci, S; Girotto, S; Di Stefano, G; Roberti, M; Cavalli, A

> <Date of publication>
3/12/2020

> <Date in BindingDB>
2/25/2021

> <Institution>
Istituto Italiano di Tecnologia

> <Link to Ligand in BindingDB>
http://www.bindingdb.org/bind/chemsearch/marvin/MolStructure.jsp?monomerid=50527126

> <Link to Ligand-Target Pair in BindingDB>
http://www.bindingdb.org/jsp/dbsearch/PrimarySearch_ki.jsp?energyterm=kJ/mole&tag=pol&polymerid=4676&target=DNA+repair+protein+RAD51+homolog+1&column=ki&startPg=0&Increment=50&submit=Search

> <Link to Ligand-Target Pair in BindingDB>
http://www.bindingdb.org/jsp/dbsearch/PrimarySearch_ki.jsp?energyterm=kJ/mole&tag=r21&monomerid=50527126&enzyme=DNA+repair+protein+RAD51+homolog+1&column=ki&startPg=0&Increment=50&submit=Search

> <Ligand HET ID in PDB>


> <PDB ID(s) for Ligand-Target Complex>


> <PubChem CID of Ligand>
155530004

> <PubChem SID of Ligand>
440735708

> <ChEBI ID of Ligand>


> <ChEMBL ID of Ligand>


> <DrugBank ID of Ligand>


> <IUPHAR_GRAC ID of Ligand>


> <KEGG ID of Ligand>


> <ZINC ID of Ligand>


> <Number of Protein Chains in Target (bigger than 1 implies a multichain complex)>
1

> <BindingDB Target Chain Sequence>
MAMQMQLEANADTSVEEESFGPQPISRLEQCGINANDVKKLEEAGFHTVEAVAYAPKKELINIKGISEAKADKILAEAAKLVPMGFTTATEFHQRRSEIIQITTGSKELDKLLQGGIETGSITEMFGEFRTGKTQICHTLAVTCQLPIDRGGGEGKAMYIDTEGTFRPERLLAVAERYGLSGSDVLDNVAYARAFNTDHQTQLLYQASAMMVESRYALLIVDSATALYRTDYSGRGELSARQMHLARFLRMLLRLADEFGVAVVITNQVVAQVDGAAMFAADPKKPIGGNIIAHASTTRLYLRKGRGETRICKIYDSPCLPEAEAMFAINADGVGDAKD

> <PDB ID(s) of Target Chain>
1N0W,5JZC,5NP7,5NWL,8BQ2,8BR2,8BSC

> <UniProt (SwissProt) Recommended Name of Target Chain>
DNA repair protein RAD51 homolog 1

> <UniProt (SwissProt) Entry Name of Target Chain>
RAD51_HUMAN

> <UniProt (SwissProt) Primary ID of Target Chain>
Q06609

> <UniProt (SwissProt) Secondary ID(s) of Target Chain>
B0FXP0 B2R8T6 Q6FHX9 Q6ZNA8 Q9BV60

> <UniProt (SwissProt) Alternative ID(s) of Target Chain>


> <UniProt (TrEMBL) Submitted Name of Target Chain>


> <UniProt (TrEMBL) Entry Name of Target Chain>


> <UniProt (TrEMBL) Primary ID of Target Chain>


> <UniProt (TrEMBL) Secondary ID(s) of Target Chain>


> <UniProt (TrEMBL) Alternative ID(s) of Target Chain>


$$$$
 
     RDKit          2D

 38 43  0  0  0  0  0  0  0  0999 V2000
    1.7787   -3.6681    0.0000 C   0  0  0  0  0  0  0  0  0  0  0  0
    1.7775   -4.4962    0.0000 C   0  0  0  0  0  0  0  0  0  0  0  0
    2.4895   -4.9074    0.0000 C   0  0  0  0  0  0  0  0  0  0  0  0
    2.4877   -3.2529    0.0000 C   0  0  0  0  0  0  0  0  0  0  0  0
    3.2042   -3.6645    0.0000 C   0  0  0  0  0  0  0  0  0  0  0  0
    3.2031   -4.4937    0.0000 C   0  0  0  0  0  0  0  0  0  0  0  0
    3.9172   -4.9050    0.0000 N   0  0  0  0  0  0  0  0  0  0  0  0
    4.6371   -4.4957    0.0000 C   0  0  0  0  0  0  0  0  0  0  0  0
    4.6383   -3.6665    0.0000 C   0  0  0  0  0  0  0  0  0  0  0  0
    3.9195   -3.2465    0.0000 C   0  0  0  0  0  0  0  0  0  0  0  0
    3.9200   -2.4249    0.0000 C   0  0  0  0  0  0  0  0  0  0  0  0
    4.6374   -2.0148    0.0000 C   0  0  0  0  0  0  0  0  0  0  0  0
    4.6377   -1.1898    0.0000 C   0  0  0  0  0  0  0  0  0  0  0  0
    3.9215   -0.7740    0.0000 C   0  0  0  0  0  0  0  0  0  0  0  0
    3.2035   -1.1933    0.0000 C   0  0  0  0  0  0  0  0  0  0  0  0
    3.2066   -2.0170    0.0000 C   0  0  0  0  0  0  0  0  0  0  0  0
    5.3528   -3.2523    0.0000 C   0  0  0  0  0  0  0  0  0  0  0  0
    6.1068   -3.5924    0.0000 C   0  0  0  0  0  0  0  0  0  0  0  0
    6.6580   -2.9790    0.0000 C   0  0  0  0  0  0  0  0  0  0  0  0
    6.2488   -2.2623    0.0000 N   0  0  0  0  0  0  0  0  0  0  0  0
    5.4407   -2.4312    0.0000 N   0  0  0  0  0  0  0  0  0  0  0  0
    5.3516   -4.9085    0.0000 O   0  0  0  0  0  0  0  0  0  0  0  0
    6.5848   -1.5084    0.0000 C   0  0  0  0  0  0  0  0  0  0  0  0
    7.4063   -1.4243    0.0000 C   0  0  0  0  0  0  0  0  0  0  0  0
    6.1035   -0.8384    0.0000 O   0  0  0  0  0  0  0  0  0  0  0  0
    7.4816   -2.9752    0.0000 C   0  0  0  0  0  0  0  0  0  0  0  0
    7.8969   -3.6894    0.0000 C   0  0  0  0  0  0  0  0  0  0  0  0
    8.7094   -2.2555    0.0000 C   0  0  0  0  0  0  0  0  0  0  0  0
    7.8880   -2.2624    0.0000 C   0  0  0  0  0  0  0  0  0  0  0  0
    1.0662   -3.2591    0.0000 Cl  0  0  0  0  0  0  0  0  0  0  0  0
    9.1269   -2.9696    0.0000 C   0  0  0  0  0  0  0  0  0  0  0  0
    8.7216   -3.6850    0.0000 C   0  0  0  0  0  0  0  0  0  0  0  0
    9.2767   -4.2915    0.0000 C   0  0  0  0  0  0  0  0  0  0  0  0
   10.0250   -3.9510    0.0000 N   0  0  0  0  0  0  0  0  0  0  0  0
    9.9324   -3.1341    0.0000 N   0  0  0  0  0  0  0  0  0  0  0  0
   10.5385   -2.5794    0.0000 C   0  0  0  0  0  0  0  0  0  0  0  0
   11.3219   -2.8270    0.0000 C   0  0  0  0  0  0  0  0  0  0  0  0
   11.9280   -2.2723    0.0000 C   0  0  0  0  0  0  0  0  0  0  0  0
  1  2  2  0
  2  3  1  0
  3  6  2  0
  5  4  2  0
  4  1  1  0
  5  6  1  0
  5 10  1  0
  6  7  1  0
  7  8  1  0
  8  9  1  0
  9 10  2  0
 11 12  2  0
 12 13  1  0
 13 14  2  0
 14 15  1  0
 15 16  2  0
 16 11  1  0
 10 11  1  0
 17 18  1  0
 18 19  1  0
 19 20  1  0
 20 21  1  0
 21 17  2  0
  9 17  1  0
  8 22  2  0
 20 23  1  0
 23 24  1  0
 23 25  2  0
 19 26  1  0
 26 27  2  0
 27 32  1  0
 31 28  1  0
 28 29  2  0
 29 26  1  0
  1 30  1  0
 31 32  2  0
 32 33  1  0
 33 34  2  0
 34 35  1  0
 35 31  1  0
 35 36  1  0
 36 37  1  0
 37 38  1  0
M  END
> <From>
www.bindingDB.org

> <BindingDB Reactant_set_id>
51293315

> <Ligand InChI>
InChI=1S/C30H26ClN5O2/c1-3-13-35-26-12-9-20(14-21(26)17-32-35)27-16-25(34-36(27)18(2)37)29-28(19-7-5-4-6-8-19)23-15-22(31)10-11-24(23)33-30(29)38/h4-12,14-15,17,27H,3,13,16H2,1-2H3,(H,33,38)

> <Ligand InChI Key>
WQOQVYXTKUHYSR-UHFFFAOYSA-N

> <BindingDB MonomerID>
50527127

> <BindingDB Ligand Name>
CHEMBL4516566

> <Target Name>
DNA repair protein RAD51 homolog 1

> <Target Source Organism According to Curator or DataSource>
Homo sapiens

> <Ki (nM)>


> <IC50 (nM)>


> <Kd (nM)>


> <EC50 (nM)>
 950

> <kon (M-1-s-1)>


> <koff (s-1)>


> <pH>


> <Temp C>


> <Curation/DataSource>
ChEMBL

> <Article DOI>
10.1021/acs.jmedchem.9b01526

> <BindingDB Entry DOI>
10.7270/Q2SF30MF

> <PMID>
32037829

> <PubChem AID>


> <Patent Number>


> <Authors>
Bagnolini, G; Milano, D; Manerba, M; Schipani, F; Ortega, JA; Gioia, D; Falchi, F; Balboni, A; Farabegoli, F; De Franco, F; Robertson, J; Pellicciari, R; Pallavicini, I; Peri, S; Minucci, S; Girotto, S; Di Stefano, G; Roberti, M; Cavalli, A

> <Date of publication>
3/12/2020

> <Date in BindingDB>
2/25/2021

> <Institution>
Istituto Italiano di Tecnologia

> <Link to Ligand in BindingDB>
http://www.bindingdb.org/bind/chemsearch/marvin/MolStructure.jsp?monomerid=50527127

> <Link to Ligand-Target Pair in BindingDB>
http://www.bindingdb.org/jsp/dbsearch/PrimarySearch_ki.jsp?energyterm=kJ/mole&tag=pol&polymerid=4676&target=DNA+repair+protein+RAD51+homolog+1&column=ki&startPg=0&Increment=50&submit=Search

> <Link to Ligand-Target Pair in BindingDB>
http://www.bindingdb.org/jsp/dbsearch/PrimarySearch_ki.jsp?energyterm=kJ/mole&tag=r21&monomerid=50527127&enzyme=DNA+repair+protein+RAD51+homolog+1&column=ki&startPg=0&Increment=50&submit=Search

> <Ligand HET ID in PDB>


> <PDB ID(s) for Ligand-Target Complex>


> <PubChem CID of Ligand>
155540192

> <PubChem SID of Ligand>
440735709

> <ChEBI ID of Ligand>


> <ChEMBL ID of Ligand>


> <DrugBank ID of Ligand>


> <IUPHAR_GRAC ID of Ligand>


> <KEGG ID of Ligand>


> <ZINC ID of Ligand>


> <Number of Protein Chains in Target (bigger than 1 implies a multichain complex)>
1

> <BindingDB Target Chain Sequence>
MAMQMQLEANADTSVEEESFGPQPISRLEQCGINANDVKKLEEAGFHTVEAVAYAPKKELINIKGISEAKADKILAEAAKLVPMGFTTATEFHQRRSEIIQITTGSKELDKLLQGGIETGSITEMFGEFRTGKTQICHTLAVTCQLPIDRGGGEGKAMYIDTEGTFRPERLLAVAERYGLSGSDVLDNVAYARAFNTDHQTQLLYQASAMMVESRYALLIVDSATALYRTDYSGRGELSARQMHLARFLRMLLRLADEFGVAVVITNQVVAQVDGAAMFAADPKKPIGGNIIAHASTTRLYLRKGRGETRICKIYDSPCLPEAEAMFAINADGVGDAKD

> <PDB ID(s) of Target Chain>
1N0W,5JZC,5NP7,5NWL,8BQ2,8BR2,8BSC

> <UniProt (SwissProt) Recommended Name of Target Chain>
DNA repair protein RAD51 homolog 1

> <UniProt (SwissProt) Entry Name of Target Chain>
RAD51_HUMAN

> <UniProt (SwissProt) Primary ID of Target Chain>
Q06609

> <UniProt (SwissProt) Secondary ID(s) of Target Chain>
B0FXP0 B2R8T6 Q6FHX9 Q6ZNA8 Q9BV60

> <UniProt (SwissProt) Alternative ID(s) of Target Chain>


> <UniProt (TrEMBL) Submitted Name of Target Chain>


> <UniProt (TrEMBL) Entry Name of Target Chain>


> <UniProt (TrEMBL) Primary ID of Target Chain>


> <UniProt (TrEMBL) Secondary ID(s) of Target Chain>


> <UniProt (TrEMBL) Alternative ID(s) of Target Chain>


$$$$
 
     RDKit          2D

 40 45  0  0  0  0  0  0  0  0999 V2000
    1.7831  -20.7919    0.0000 C   0  0  0  0  0  0  0  0  0  0  0  0
    1.7819  -21.6201    0.0000 C   0  0  0  0  0  0  0  0  0  0  0  0
    2.4939  -22.0313    0.0000 C   0  0  0  0  0  0  0  0  0  0  0  0
    2.4921  -20.3766    0.0000 C   0  0  0  0  0  0  0  0  0  0  0  0
    3.2088  -20.7883    0.0000 C   0  0  0  0  0  0  0  0  0  0  0  0
    3.2077  -21.6176    0.0000 C   0  0  0  0  0  0  0  0  0  0  0  0
    3.9219  -22.0289    0.0000 N   0  0  0  0  0  0  0  0  0  0  0  0
    4.6419  -21.6196    0.0000 C   0  0  0  0  0  0  0  0  0  0  0  0
    4.6431  -20.7903    0.0000 C   0  0  0  0  0  0  0  0  0  0  0  0
    3.9242  -20.3703    0.0000 C   0  0  0  0  0  0  0  0  0  0  0  0
    3.9247  -19.5486    0.0000 C   0  0  0  0  0  0  0  0  0  0  0  0
    4.6422  -19.1383    0.0000 C   0  0  0  0  0  0  0  0  0  0  0  0
    4.6426  -18.3133    0.0000 C   0  0  0  0  0  0  0  0  0  0  0  0
    3.9262  -17.8974    0.0000 C   0  0  0  0  0  0  0  0  0  0  0  0
    3.2081  -18.3168    0.0000 C   0  0  0  0  0  0  0  0  0  0  0  0
    3.2112  -19.1405    0.0000 C   0  0  0  0  0  0  0  0  0  0  0  0
    5.3577  -20.3760    0.0000 C   0  0  0  0  0  0  0  0  0  0  0  0
    6.1118  -20.7162    0.0000 C   0  0  0  0  0  0  0  0  0  0  0  0
    6.6631  -20.1027    0.0000 C   0  0  0  0  0  0  0  0  0  0  0  0
    6.2539  -19.3859    0.0000 N   0  0  0  0  0  0  0  0  0  0  0  0
    5.4456  -19.5549    0.0000 N   0  0  0  0  0  0  0  0  0  0  0  0
    5.3565  -22.0324    0.0000 O   0  0  0  0  0  0  0  0  0  0  0  0
    6.5899  -18.6318    0.0000 C   0  0  0  0  0  0  0  0  0  0  0  0
    7.4114  -18.5479    0.0000 C   0  0  0  0  0  0  0  0  0  0  0  0
    6.1084  -17.9617    0.0000 O   0  0  0  0  0  0  0  0  0  0  0  0
    7.4867  -20.0989    0.0000 C   0  0  0  0  0  0  0  0  0  0  0  0
    7.9021  -20.8131    0.0000 C   0  0  0  0  0  0  0  0  0  0  0  0
    8.7148  -19.3790    0.0000 C   0  0  0  0  0  0  0  0  0  0  0  0
    7.8933  -19.3860    0.0000 C   0  0  0  0  0  0  0  0  0  0  0  0
    1.0705  -20.3828    0.0000 Cl  0  0  0  0  0  0  0  0  0  0  0  0
    7.7478  -17.7981    0.0000 C   0  0  0  0  0  0  0  0  0  0  0  0
    8.5653  -17.7146    0.0000 C   0  0  0  0  0  0  0  0  0  0  0  0
    9.0463  -18.3807    0.0000 O   0  0  0  0  0  0  0  0  0  0  0  0
    8.9016  -16.9648    0.0000 O   0  0  0  0  0  0  0  0  0  0  0  0
    9.1323  -20.0934    0.0000 C   0  0  0  0  0  0  0  0  0  0  0  0
    8.7270  -20.8087    0.0000 C   0  0  0  0  0  0  0  0  0  0  0  0
    9.2821  -21.4153    0.0000 C   0  0  0  0  0  0  0  0  0  0  0  0
   10.0306  -21.0749    0.0000 C   0  0  0  0  0  0  0  0  0  0  0  0
    9.9379  -20.2579    0.0000 N   0  0  0  0  0  0  0  0  0  0  0  0
   10.5441  -19.7030    0.0000 C   0  0  0  0  0  0  0  0  0  0  0  0
  1  2  2  0
  2  3  1  0
  3  6  2  0
  5  4  2  0
  4  1  1  0
  5  6  1  0
  5 10  1  0
  6  7  1  0
  7  8  1  0
  8  9  1  0
  9 10  2  0
 11 12  2  0
 12 13  1  0
 13 14  2  0
 14 15  1  0
 15 16  2  0
 16 11  1  0
 10 11  1  0
 17 18  1  0
 18 19  1  0
 19 20  1  0
 20 21  1  0
 21 17  2  0
  9 17  1  0
  8 22  2  0
 20 23  1  0
 23 24  1  0
 23 25  2  0
 19 26  1  0
 26 27  2  0
 27 36  1  0
 35 28  1  0
 28 29  2  0
 29 26  1  0
  1 30  1  0
 24 31  1  0
 31 32  1  0
 32 33  1  0
 32 34  2  0
 35 36  2  0
 36 37  1  0
 37 38  2  0
 38 39  1  0
 39 35  1  0
 39 40  1  0
M  END
> <From>
www.bindingDB.org

> <BindingDB Reactant_set_id>
51293316

> <Ligand InChI>
InChI=1S/C31H25ClN4O4/c1-35-14-13-20-15-19(7-10-25(20)35)26-17-24(34-36(26)27(37)11-12-28(38)39)30-29(18-5-3-2-4-6-18)22-16-21(32)8-9-23(22)33-31(30)40/h2-10,13-16,26H,11-12,17H2,1H3,(H,33,40)(H,38,39)

> <Ligand InChI Key>
NOUQJRRABGAABZ-UHFFFAOYSA-N

> <BindingDB MonomerID>
50527128

> <BindingDB Ligand Name>
CHEMBL4468829

> <Target Name>
DNA repair protein RAD51 homolog 1

> <Target Source Organism According to Curator or DataSource>
Homo sapiens

> <Ki (nM)>


> <IC50 (nM)>


> <Kd (nM)>


> <EC50 (nM)>
 2000

> <kon (M-1-s-1)>


> <koff (s-1)>


> <pH>


> <Temp C>


> <Curation/DataSource>
ChEMBL

> <Article DOI>
10.1021/acs.jmedchem.9b01526

> <BindingDB Entry DOI>
10.7270/Q2SF30MF

> <PMID>
32037829

> <PubChem AID>


> <Patent Number>


> <Authors>
Bagnolini, G; Milano, D; Manerba, M; Schipani, F; Ortega, JA; Gioia, D; Falchi, F; Balboni, A; Farabegoli, F; De Franco, F; Robertson, J; Pellicciari, R; Pallavicini, I; Peri, S; Minucci, S; Girotto, S; Di Stefano, G; Roberti, M; Cavalli, A

> <Date of publication>
3/12/2020

> <Date in BindingDB>
2/25/2021

> <Institution>
Istituto Italiano di Tecnologia

> <Link to Ligand in BindingDB>
http://www.bindingdb.org/bind/chemsearch/marvin/MolStructure.jsp?monomerid=50527128

> <Link to Ligand-Target Pair in BindingDB>
http://www.bindingdb.org/jsp/dbsearch/PrimarySearch_ki.jsp?energyterm=kJ/mole&tag=pol&polymerid=4676&target=DNA+repair+protein+RAD51+homolog+1&column=ki&startPg=0&Increment=50&submit=Search

> <Link to Ligand-Target Pair in BindingDB>
http://www.bindingdb.org/jsp/dbsearch/PrimarySearch_ki.jsp?energyterm=kJ/mole&tag=r21&monomerid=50527128&enzyme=DNA+repair+protein+RAD51+homolog+1&column=ki&startPg=0&Increment=50&submit=Search

> <Ligand HET ID in PDB>


> <PDB ID(s) for Ligand-Target Complex>


> <PubChem CID of Ligand>
155533293

> <PubChem SID of Ligand>
440735710

> <ChEBI ID of Ligand>


> <ChEMBL ID of Ligand>


> <DrugBank ID of Ligand>


> <IUPHAR_GRAC ID of Ligand>


> <KEGG ID of Ligand>


> <ZINC ID of Ligand>


> <Number of Protein Chains in Target (bigger than 1 implies a multichain complex)>
1

> <BindingDB Target Chain Sequence>
MAMQMQLEANADTSVEEESFGPQPISRLEQCGINANDVKKLEEAGFHTVEAVAYAPKKELINIKGISEAKADKILAEAAKLVPMGFTTATEFHQRRSEIIQITTGSKELDKLLQGGIETGSITEMFGEFRTGKTQICHTLAVTCQLPIDRGGGEGKAMYIDTEGTFRPERLLAVAERYGLSGSDVLDNVAYARAFNTDHQTQLLYQASAMMVESRYALLIVDSATALYRTDYSGRGELSARQMHLARFLRMLLRLADEFGVAVVITNQVVAQVDGAAMFAADPKKPIGGNIIAHASTTRLYLRKGRGETRICKIYDSPCLPEAEAMFAINADGVGDAKD

> <PDB ID(s) of Target Chain>
1N0W,5JZC,5NP7,5NWL,8BQ2,8BR2,8BSC

> <UniProt (SwissProt) Recommended Name of Target Chain>
DNA repair protein RAD51 homolog 1

> <UniProt (SwissProt) Entry Name of Target Chain>
RAD51_HUMAN

> <UniProt (SwissProt) Primary ID of Target Chain>
Q06609

> <UniProt (SwissProt) Secondary ID(s) of Target Chain>
B0FXP0 B2R8T6 Q6FHX9 Q6ZNA8 Q9BV60

> <UniProt (SwissProt) Alternative ID(s) of Target Chain>


> <UniProt (TrEMBL) Submitted Name of Target Chain>


> <UniProt (TrEMBL) Entry Name of Target Chain>


> <UniProt (TrEMBL) Primary ID of Target Chain>


> <UniProt (TrEMBL) Secondary ID(s) of Target Chain>


> <UniProt (TrEMBL) Alternative ID(s) of Target Chain>


$$$$
 
     RDKit          2D

 34 38  0  0  0  0  0  0  0  0999 V2000
   31.2723  -14.8380    0.0000 C   0  0  0  0  0  0  0  0  0  0  0  0
   31.2712  -15.6662    0.0000 C   0  0  0  0  0  0  0  0  0  0  0  0
   31.9830  -16.0773    0.0000 C   0  0  0  0  0  0  0  0  0  0  0  0
   31.9812  -14.4228    0.0000 C   0  0  0  0  0  0  0  0  0  0  0  0
   32.6978  -14.8344    0.0000 C   0  0  0  0  0  0  0  0  0  0  0  0
   32.6966  -15.6636    0.0000 C   0  0  0  0  0  0  0  0  0  0  0  0
   33.4107  -16.0749    0.0000 N   0  0  0  0  0  0  0  0  0  0  0  0
   34.1305  -15.6656    0.0000 C   0  0  0  0  0  0  0  0  0  0  0  0
   34.1317  -14.8364    0.0000 C   0  0  0  0  0  0  0  0  0  0  0  0
   33.4130  -14.4165    0.0000 C   0  0  0  0  0  0  0  0  0  0  0  0
   33.4135  -13.5949    0.0000 C   0  0  0  0  0  0  0  0  0  0  0  0
   34.1308  -13.1848    0.0000 C   0  0  0  0  0  0  0  0  0  0  0  0
   34.1312  -12.3598    0.0000 C   0  0  0  0  0  0  0  0  0  0  0  0
   33.4150  -11.9440    0.0000 C   0  0  0  0  0  0  0  0  0  0  0  0
   32.6970  -12.3633    0.0000 C   0  0  0  0  0  0  0  0  0  0  0  0
   32.7001  -13.1870    0.0000 C   0  0  0  0  0  0  0  0  0  0  0  0
   34.8462  -14.4222    0.0000 C   0  0  0  0  0  0  0  0  0  0  0  0
   35.6002  -14.7623    0.0000 C   0  0  0  0  0  0  0  0  0  0  0  0
   36.1514  -14.1490    0.0000 C   0  0  0  0  0  0  0  0  0  0  0  0
   35.7423  -13.4323    0.0000 N   0  0  0  0  0  0  0  0  0  0  0  0
   34.9342  -13.6012    0.0000 N   0  0  0  0  0  0  0  0  0  0  0  0
   34.8450  -16.0784    0.0000 O   0  0  0  0  0  0  0  0  0  0  0  0
   36.0782  -12.6784    0.0000 C   0  0  0  0  0  0  0  0  0  0  0  0
   36.8996  -12.5944    0.0000 C   0  0  0  0  0  0  0  0  0  0  0  0
   35.5968  -12.0084    0.0000 O   0  0  0  0  0  0  0  0  0  0  0  0
   36.9749  -14.1451    0.0000 C   0  0  0  0  0  0  0  0  0  0  0  0
   30.5598  -14.4291    0.0000 Cl  0  0  0  0  0  0  0  0  0  0  0  0
   37.2360  -11.8449    0.0000 C   0  0  0  0  0  0  0  0  0  0  0  0
   37.3882  -14.8587    0.0000 C   0  0  0  0  0  0  0  0  0  0  0  0
   38.2109  -14.8553    0.0000 C   0  0  0  0  0  0  0  0  0  0  0  0
   38.6202  -14.1396    0.0000 C   0  0  0  0  0  0  0  0  0  0  0  0
   38.2007  -13.4260    0.0000 C   0  0  0  0  0  0  0  0  0  0  0  0
   37.3793  -13.4330    0.0000 C   0  0  0  0  0  0  0  0  0  0  0  0
   39.4418  -14.1348    0.0000 Cl  0  0  0  0  0  0  0  0  0  0  0  0
  1  2  2  0
  2  3  1  0
  3  6  2  0
  5  4  2  0
  4  1  1  0
  5  6  1  0
  5 10  1  0
  6  7  1  0
  7  8  1  0
  8  9  1  0
  9 10  2  0
 11 12  2  0
 12 13  1  0
 13 14  2  0
 14 15  1  0
 15 16  2  0
 16 11  1  0
 10 11  1  0
 17 18  1  0
 18 19  1  0
 19 20  1  0
 20 21  1  0
 21 17  2  0
  9 17  1  0
  8 22  2  0
 20 23  1  0
 23 24  1  0
 23 25  2  0
 19 26  1  0
  1 27  1  0
 24 28  1  0
 26 29  2  0
 29 30  1  0
 30 31  2  0
 31 32  1  0
 32 33  2  0
 33 26  1  0
 31 34  1  0
M  END
> <From>
www.bindingDB.org

> <BindingDB Reactant_set_id>
51293317

> <Ligand InChI>
InChI=1S/C27H21Cl2N3O2/c1-2-24(33)32-23(16-8-10-18(28)11-9-16)15-22(31-32)26-25(17-6-4-3-5-7-17)20-14-19(29)12-13-21(20)30-27(26)34/h3-14,23H,2,15H2,1H3,(H,30,34)

> <Ligand InChI Key>
HQPCEGFPSLPSKP-UHFFFAOYSA-N

> <BindingDB MonomerID>
50527129

> <BindingDB Ligand Name>
CHEMBL4575879

> <Target Name>
DNA repair protein RAD51 homolog 1

> <Target Source Organism According to Curator or DataSource>
Homo sapiens

> <Ki (nM)>


> <IC50 (nM)>


> <Kd (nM)>


> <EC50 (nM)>
 8000

> <kon (M-1-s-1)>


> <koff (s-1)>


> <pH>


> <Temp C>


> <Curation/DataSource>
ChEMBL

> <Article DOI>
10.1021/acs.jmedchem.9b01526

> <BindingDB Entry DOI>
10.7270/Q2SF30MF

> <PMID>
32037829

> <PubChem AID>


> <Patent Number>


> <Authors>
Bagnolini, G; Milano, D; Manerba, M; Schipani, F; Ortega, JA; Gioia, D; Falchi, F; Balboni, A; Farabegoli, F; De Franco, F; Robertson, J; Pellicciari, R; Pallavicini, I; Peri, S; Minucci, S; Girotto, S; Di Stefano, G; Roberti, M; Cavalli, A

> <Date of publication>
3/12/2020

> <Date in BindingDB>
2/25/2021

> <Institution>
Istituto Italiano di Tecnologia

> <Link to Ligand in BindingDB>
http://www.bindingdb.org/bind/chemsearch/marvin/MolStructure.jsp?monomerid=50527129

> <Link to Ligand-Target Pair in BindingDB>
http://www.bindingdb.org/jsp/dbsearch/PrimarySearch_ki.jsp?energyterm=kJ/mole&tag=pol&polymerid=4676&target=DNA+repair+protein+RAD51+homolog+1&column=ki&startPg=0&Increment=50&submit=Search

> <Link to Ligand-Target Pair in BindingDB>
http://www.bindingdb.org/jsp/dbsearch/PrimarySearch_ki.jsp?energyterm=kJ/mole&tag=r21&monomerid=50527129&enzyme=DNA+repair+protein+RAD51+homolog+1&column=ki&startPg=0&Increment=50&submit=Search

> <Ligand HET ID in PDB>


> <PDB ID(s) for Ligand-Target Complex>


> <PubChem CID of Ligand>
136084728

> <PubChem SID of Ligand>
440735711

> <ChEBI ID of Ligand>


> <ChEMBL ID of Ligand>


> <DrugBank ID of Ligand>


> <IUPHAR_GRAC ID of Ligand>


> <KEGG ID of Ligand>


> <ZINC ID of Ligand>


> <Number of Protein Chains in Target (bigger than 1 implies a multichain complex)>
1

> <BindingDB Target Chain Sequence>
MAMQMQLEANADTSVEEESFGPQPISRLEQCGINANDVKKLEEAGFHTVEAVAYAPKKELINIKGISEAKADKILAEAAKLVPMGFTTATEFHQRRSEIIQITTGSKELDKLLQGGIETGSITEMFGEFRTGKTQICHTLAVTCQLPIDRGGGEGKAMYIDTEGTFRPERLLAVAERYGLSGSDVLDNVAYARAFNTDHQTQLLYQASAMMVESRYALLIVDSATALYRTDYSGRGELSARQMHLARFLRMLLRLADEFGVAVVITNQVVAQVDGAAMFAADPKKPIGGNIIAHASTTRLYLRKGRGETRICKIYDSPCLPEAEAMFAINADGVGDAKD

> <PDB ID(s) of Target Chain>
1N0W,5JZC,5NP7,5NWL,8BQ2,8BR2,8BSC

> <UniProt (SwissProt) Recommended Name of Target Chain>
DNA repair protein RAD51 homolog 1

> <UniProt (SwissProt) Entry Name of Target Chain>
RAD51_HUMAN

> <UniProt (SwissProt) Primary ID of Target Chain>
Q06609

> <UniProt (SwissProt) Secondary ID(s) of Target Chain>
B0FXP0 B2R8T6 Q6FHX9 Q6ZNA8 Q9BV60

> <UniProt (SwissProt) Alternative ID(s) of Target Chain>


> <UniProt (TrEMBL) Submitted Name of Target Chain>


> <UniProt (TrEMBL) Entry Name of Target Chain>


> <UniProt (TrEMBL) Primary ID of Target Chain>


> <UniProt (TrEMBL) Secondary ID(s) of Target Chain>


> <UniProt (TrEMBL) Alternative ID(s) of Target Chain>


$$$$
 
     RDKit          2D

 33 37  0  0  0  0  0  0  0  0999 V2000
    2.2601   -3.9795    0.0000 C   0  0  0  0  0  0  0  0  0  0  0  0
    2.2590   -4.8076    0.0000 C   0  0  0  0  0  0  0  0  0  0  0  0
    2.9709   -5.2188    0.0000 C   0  0  0  0  0  0  0  0  0  0  0  0
    2.9691   -3.5643    0.0000 C   0  0  0  0  0  0  0  0  0  0  0  0
    3.6857   -3.9759    0.0000 C   0  0  0  0  0  0  0  0  0  0  0  0
    3.6845   -4.8051    0.0000 C   0  0  0  0  0  0  0  0  0  0  0  0
    4.3987   -5.2164    0.0000 N   0  0  0  0  0  0  0  0  0  0  0  0
    5.1187   -4.8071    0.0000 C   0  0  0  0  0  0  0  0  0  0  0  0
    5.1198   -3.9779    0.0000 C   0  0  0  0  0  0  0  0  0  0  0  0
    4.4011   -3.5580    0.0000 C   0  0  0  0  0  0  0  0  0  0  0  0
    4.4016   -2.7363    0.0000 C   0  0  0  0  0  0  0  0  0  0  0  0
    5.1189   -2.3261    0.0000 C   0  0  0  0  0  0  0  0  0  0  0  0
    5.1193   -1.5011    0.0000 C   0  0  0  0  0  0  0  0  0  0  0  0
    4.4030   -1.0853    0.0000 C   0  0  0  0  0  0  0  0  0  0  0  0
    3.6849   -1.5046    0.0000 C   0  0  0  0  0  0  0  0  0  0  0  0
    3.6882   -2.3283    0.0000 C   0  0  0  0  0  0  0  0  0  0  0  0
    5.8345   -3.5637    0.0000 C   0  0  0  0  0  0  0  0  0  0  0  0
    6.5883   -3.9038    0.0000 C   0  0  0  0  0  0  0  0  0  0  0  0
    7.1396   -3.2904    0.0000 C   0  0  0  0  0  0  0  0  0  0  0  0
    6.7305   -2.5736    0.0000 N   0  0  0  0  0  0  0  0  0  0  0  0
    5.9223   -2.7426    0.0000 N   0  0  0  0  0  0  0  0  0  0  0  0
    5.8332   -5.2199    0.0000 O   0  0  0  0  0  0  0  0  0  0  0  0
    7.0664   -1.8196    0.0000 C   0  0  0  0  0  0  0  0  0  0  0  0
    7.8880   -1.7357    0.0000 C   0  0  0  0  0  0  0  0  0  0  0  0
    6.5850   -1.1496    0.0000 O   0  0  0  0  0  0  0  0  0  0  0  0
    7.9633   -3.2866    0.0000 C   0  0  0  0  0  0  0  0  0  0  0  0
    1.5476   -3.5704    0.0000 Cl  0  0  0  0  0  0  0  0  0  0  0  0
    8.3765   -4.0002    0.0000 C   0  0  0  0  0  0  0  0  0  0  0  0
    9.1993   -3.9967    0.0000 C   0  0  0  0  0  0  0  0  0  0  0  0
    9.6086   -3.2811    0.0000 C   0  0  0  0  0  0  0  0  0  0  0  0
    9.1891   -2.5674    0.0000 C   0  0  0  0  0  0  0  0  0  0  0  0
    8.3677   -2.5743    0.0000 C   0  0  0  0  0  0  0  0  0  0  0  0
   10.4302   -3.2761    0.0000 Br  0  0  0  0  0  0  0  0  0  0  0  0
  1  2  2  0
  2  3  1  0
  3  6  2  0
  5  4  2  0
  4  1  1  0
  5  6  1  0
  5 10  1  0
  6  7  1  0
  7  8  1  0
  8  9  1  0
  9 10  2  0
 11 12  2  0
 12 13  1  0
 13 14  2  0
 14 15  1  0
 15 16  2  0
 16 11  1  0
 10 11  1  0
 17 18  1  0
 18 19  1  0
 19 20  1  0
 20 21  1  0
 21 17  2  0
  9 17  1  0
  8 22  2  0
 20 23  1  0
 23 24  1  0
 23 25  2  0
 19 26  1  0
  1 27  1  0
 26 28  2  0
 28 29  1  0
 29 30  2  0
 30 31  1  0
 31 32  2  0
 32 26  1  0
 30 33  1  0
M  END
> <From>
www.bindingDB.org

> <BindingDB Reactant_set_id>
51293318

> <Ligand InChI>
InChI=1S/C26H19BrClN3O2/c1-15(32)31-23(16-7-9-18(27)10-8-16)14-22(30-31)25-24(17-5-3-2-4-6-17)20-13-19(28)11-12-21(20)29-26(25)33/h2-13,23H,14H2,1H3,(H,29,33)

> <Ligand InChI Key>
DBWSFEIPLCWNNC-UHFFFAOYSA-N

> <BindingDB MonomerID>
50527130

> <BindingDB Ligand Name>
CHEMBL4523053

> <Target Name>
DNA repair protein RAD51 homolog 1

> <Target Source Organism According to Curator or DataSource>
Homo sapiens

> <Ki (nM)>


> <IC50 (nM)>


> <Kd (nM)>


> <EC50 (nM)>
 38000

> <kon (M-1-s-1)>


> <koff (s-1)>


> <pH>


> <Temp C>


> <Curation/DataSource>
ChEMBL

> <Article DOI>
10.1021/acs.jmedchem.9b01526

> <BindingDB Entry DOI>
10.7270/Q2SF30MF

> <PMID>
32037829

> <PubChem AID>


> <Patent Number>


> <Authors>
Bagnolini, G; Milano, D; Manerba, M; Schipani, F; Ortega, JA; Gioia, D; Falchi, F; Balboni, A; Farabegoli, F; De Franco, F; Robertson, J; Pellicciari, R; Pallavicini, I; Peri, S; Minucci, S; Girotto, S; Di Stefano, G; Roberti, M; Cavalli, A

> <Date of publication>
3/12/2020

> <Date in BindingDB>
2/25/2021

> <Institution>
Istituto Italiano di Tecnologia

> <Link to Ligand in BindingDB>
http://www.bindingdb.org/bind/chemsearch/marvin/MolStructure.jsp?monomerid=50527130

> <Link to Ligand-Target Pair in BindingDB>
http://www.bindingdb.org/jsp/dbsearch/PrimarySearch_ki.jsp?energyterm=kJ/mole&tag=pol&polymerid=4676&target=DNA+repair+protein+RAD51+homolog+1&column=ki&startPg=0&Increment=50&submit=Search

> <Link to Ligand-Target Pair in BindingDB>
http://www.bindingdb.org/jsp/dbsearch/PrimarySearch_ki.jsp?energyterm=kJ/mole&tag=r21&monomerid=50527130&enzyme=DNA+repair+protein+RAD51+homolog+1&column=ki&startPg=0&Increment=50&submit=Search

> <Ligand HET ID in PDB>


> <PDB ID(s) for Ligand-Target Complex>


> <PubChem CID of Ligand>
3909954

> <PubChem SID of Ligand>
440735712

> <ChEBI ID of Ligand>


> <ChEMBL ID of Ligand>


> <DrugBank ID of Ligand>


> <IUPHAR_GRAC ID of Ligand>


> <KEGG ID of Ligand>


> <ZINC ID of Ligand>


> <Number of Protein Chains in Target (bigger than 1 implies a multichain complex)>
1

> <BindingDB Target Chain Sequence>
MAMQMQLEANADTSVEEESFGPQPISRLEQCGINANDVKKLEEAGFHTVEAVAYAPKKELINIKGISEAKADKILAEAAKLVPMGFTTATEFHQRRSEIIQITTGSKELDKLLQGGIETGSITEMFGEFRTGKTQICHTLAVTCQLPIDRGGGEGKAMYIDTEGTFRPERLLAVAERYGLSGSDVLDNVAYARAFNTDHQTQLLYQASAMMVESRYALLIVDSATALYRTDYSGRGELSARQMHLARFLRMLLRLADEFGVAVVITNQVVAQVDGAAMFAADPKKPIGGNIIAHASTTRLYLRKGRGETRICKIYDSPCLPEAEAMFAINADGVGDAKD

> <PDB ID(s) of Target Chain>
1N0W,5JZC,5NP7,5NWL,8BQ2,8BR2,8BSC

> <UniProt (SwissProt) Recommended Name of Target Chain>
DNA repair protein RAD51 homolog 1

> <UniProt (SwissProt) Entry Name of Target Chain>
RAD51_HUMAN

> <UniProt (SwissProt) Primary ID of Target Chain>
Q06609

> <UniProt (SwissProt) Secondary ID(s) of Target Chain>
B0FXP0 B2R8T6 Q6FHX9 Q6ZNA8 Q9BV60

> <UniProt (SwissProt) Alternative ID(s) of Target Chain>


> <UniProt (TrEMBL) Submitted Name of Target Chain>


> <UniProt (TrEMBL) Entry Name of Target Chain>


> <UniProt (TrEMBL) Primary ID of Target Chain>


> <UniProt (TrEMBL) Secondary ID(s) of Target Chain>


> <UniProt (TrEMBL) Alternative ID(s) of Target Chain>


$$$$
5738263
  Mrv0541 11251415582D          

 26 29  0  0  0  0            999 V2000
    5.2223   -1.6500    0.0000 O   0  0  0  0  0  0  0  0  0  0  0  0
    4.5079   -0.4125    0.0000 N   0  0  0  0  0  0  0  0  0  0  0  0
    5.2223    0.8250    0.0000 N   0  0  0  0  0  0  0  0  0  0  0  0
    1.6500    2.0625    0.0000 N   0  0  0  0  0  0  0  0  0  0  0  0
    3.7934   -0.8250    0.0000 C   0  0  0  0  0  0  0  0  0  0  0  0
    4.5079    0.4125    0.0000 C   0  0  0  0  0  0  0  0  0  0  0  0
    5.9369   -0.4125    0.0000 C   0  0  0  0  0  0  0  0  0  0  0  0
    5.2223   -0.8250    0.0000 C   0  0  0  0  0  0  0  0  0  0  0  0
    3.7934   -1.6500    0.0000 C   0  0  0  0  0  0  0  0  0  0  0  0
    5.9369    0.4125    0.0000 C   0  0  0  0  0  0  0  0  0  0  0  0
    6.6743   -0.8536    0.0000 C   0  0  0  0  0  0  0  0  0  0  0  0
    3.7934    0.8250    0.0000 C   0  0  0  0  0  0  0  0  0  0  0  0
    6.6743    0.8536    0.0000 C   0  0  0  0  0  0  0  0  0  0  0  0
    3.0789   -2.0625    0.0000 C   0  0  0  0  0  0  0  0  0  0  0  0
    4.5079   -2.0625    0.0000 C   0  0  0  0  0  0  0  0  0  0  0  0
    7.4219   -0.4297    0.0000 C   0  0  0  0  0  0  0  0  0  0  0  0
    7.4219    0.4297    0.0000 C   0  0  0  0  0  0  0  0  0  0  0  0
    3.7934    1.6500    0.0000 C   0  0  0  0  0  0  0  0  0  0  0  0
    3.0789   -2.8875    0.0000 C   0  0  0  0  0  0  0  0  0  0  0  0
    4.5079   -2.8875    0.0000 C   0  0  0  0  0  0  0  0  0  0  0  0
    3.7934   -3.3000    0.0000 C   0  0  0  0  0  0  0  0  0  0  0  0
    3.0789    2.0625    0.0000 C   0  0  0  0  0  0  0  0  0  0  0  0
    3.0789    2.8875    0.0000 C   0  0  0  0  0  0  0  0  0  0  0  0
    2.3644    1.6500    0.0000 C   0  0  0  0  0  0  0  0  0  0  0  0
    2.3644    3.3000    0.0000 C   0  0  0  0  0  0  0  0  0  0  0  0
    1.6500    2.8875    0.0000 C   0  0  0  0  0  0  0  0  0  0  0  0
  1  8  2  0  0  0  0
  2  5  1  0  0  0  0
  2  6  1  0  0  0  0
  2  8  1  0  0  0  0
  3  6  2  0  0  0  0
  3 10  1  0  0  0  0
  4 24  2  0  0  0  0
  4 26  1  0  0  0  0
  5  9  1  0  0  0  0
  6 12  1  0  0  0  0
  7  8  1  0  0  0  0
  7 10  1  0  0  0  0
  7 11  2  0  0  0  0
  9 14  2  0  0  0  0
  9 15  1  0  0  0  0
 10 13  2  0  0  0  0
 11 16  1  0  0  0  0
 12 18  2  0  0  0  0
 13 17  1  0  0  0  0
 14 19  1  0  0  0  0
 15 20  2  0  0  0  0
 16 17  2  0  0  0  0
 18 22  1  0  0  0  0
 19 21  2  0  0  0  0
 20 21  1  0  0  0  0
 22 23  2  0  0  0  0
 22 24  1  0  0  0  0
 23 25  1  0  0  0  0
 25 26  2  0  0  0  0
M  END
> <From>
www.bindingDB.org

> <BindingDB Reactant_set_id>
51400672

> <Ligand InChI>
InChI=1S/C22H17N3O/c26-22-19-10-4-5-11-20(19)24-21(13-12-17-9-6-14-23-15-17)25(22)16-18-7-2-1-3-8-18/h1-15H,16H2/b13-12+

> <Ligand InChI Key>
GEKDQXSPTHHANP-OUKQBFOZSA-N

> <BindingDB MonomerID>
48804

> <BindingDB Ligand Name>
3-(phenylmethyl)-2-[(E)-2-(3-pyridinyl)ethenyl]-4-quinazolinone::3-(phenylmethyl)-2-[(E)-2-pyridin-3-ylethenyl]quinazolin-4-one::3-benzyl-2-[(E)-2-(3-pyridyl)vinyl]quinazolin-4-one::3-benzyl-2-[(E)-2-pyridin-3-ylethenyl]quinazolin-4-one::MLS000709026::SMR000289793::cid_5738263

> <Target Name>
DNA repair protein RAD51 homolog 1

> <Target Source Organism According to Curator or DataSource>
Homo sapiens

> <Ki (nM)>


> <IC50 (nM)>
 27400

> <Kd (nM)>


> <EC50 (nM)>


> <kon (M-1-s-1)>


> <koff (s-1)>


> <pH>


> <Temp C>


> <Curation/DataSource>
ChEMBL

> <Article DOI>
10.1021/acs.jmedchem.0c00766

> <BindingDB Entry DOI>
10.7270/Q2GX4G9M

> <PMID>
33135887

> <PubChem AID>


> <Patent Number>


> <Authors>
Myers, SH; Ortega, JA; Cavalli, A

> <Date of publication>
12/10/2020

> <Date in BindingDB>
3/30/2022

> <Institution>
Istituto Italiano di Tecnologia

> <Link to Ligand in BindingDB>
http://www.bindingdb.org/bind/chemsearch/marvin/MolStructure.jsp?monomerid=48804

> <Link to Ligand-Target Pair in BindingDB>
http://www.bindingdb.org/jsp/dbsearch/PrimarySearch_ki.jsp?energyterm=kJ/mole&tag=pol&polymerid=4676&target=DNA+repair+protein+RAD51+homolog+1&column=ki&startPg=0&Increment=50&submit=Search

> <Link to Ligand-Target Pair in BindingDB>
http://www.bindingdb.org/jsp/dbsearch/PrimarySearch_ki.jsp?energyterm=kJ/mole&tag=r21&monomerid=48804&enzyme=DNA+repair+protein+RAD51+homolog+1&column=ki&startPg=0&Increment=50&submit=Search

> <Ligand HET ID in PDB>


> <PDB ID(s) for Ligand-Target Complex>


> <PubChem CID of Ligand>
5738263

> <PubChem SID of Ligand>
252629091

> <ChEBI ID of Ligand>


> <ChEMBL ID of Ligand>


> <DrugBank ID of Ligand>


> <IUPHAR_GRAC ID of Ligand>


> <KEGG ID of Ligand>


> <ZINC ID of Ligand>
ZINC04537641

> <Number of Protein Chains in Target (bigger than 1 implies a multichain complex)>
1

> <BindingDB Target Chain Sequence>
MAMQMQLEANADTSVEEESFGPQPISRLEQCGINANDVKKLEEAGFHTVEAVAYAPKKELINIKGISEAKADKILAEAAKLVPMGFTTATEFHQRRSEIIQITTGSKELDKLLQGGIETGSITEMFGEFRTGKTQICHTLAVTCQLPIDRGGGEGKAMYIDTEGTFRPERLLAVAERYGLSGSDVLDNVAYARAFNTDHQTQLLYQASAMMVESRYALLIVDSATALYRTDYSGRGELSARQMHLARFLRMLLRLADEFGVAVVITNQVVAQVDGAAMFAADPKKPIGGNIIAHASTTRLYLRKGRGETRICKIYDSPCLPEAEAMFAINADGVGDAKD

> <PDB ID(s) of Target Chain>
1N0W,5JZC,5NP7,5NWL,8BQ2,8BR2,8BSC

> <UniProt (SwissProt) Recommended Name of Target Chain>
DNA repair protein RAD51 homolog 1

> <UniProt (SwissProt) Entry Name of Target Chain>
RAD51_HUMAN

> <UniProt (SwissProt) Primary ID of Target Chain>
Q06609

> <UniProt (SwissProt) Secondary ID(s) of Target Chain>
B0FXP0 B2R8T6 Q6FHX9 Q6ZNA8 Q9BV60

> <UniProt (SwissProt) Alternative ID(s) of Target Chain>


> <UniProt (TrEMBL) Submitted Name of Target Chain>


> <UniProt (TrEMBL) Entry Name of Target Chain>


> <UniProt (TrEMBL) Primary ID of Target Chain>


> <UniProt (TrEMBL) Secondary ID(s) of Target Chain>


> <UniProt (TrEMBL) Alternative ID(s) of Target Chain>


$$$$
00205001.cdx
  Mrv0541 07212217012D          

 43 46  0  0  0  0            999 V2000
   -6.6441    0.1834    0.0000 C   0  0  0  0  0  0  0  0  0  0  0  0
   -5.8472    0.3969    0.0000 C   0  0  0  0  0  0  0  0  0  0  0  0
   -5.6337    1.1938    0.0000 C   0  0  0  0  0  0  0  0  0  0  0  0
   -6.2171    1.7772    0.0000 C   0  0  0  0  0  0  0  0  0  0  0  0
   -7.0139    1.5636    0.0000 C   0  0  0  0  0  0  0  0  0  0  0  0
   -7.2275    0.7667    0.0000 C   0  0  0  0  0  0  0  0  0  0  0  0
   -4.8368    1.4073    0.0000 C   0  0  0  0  0  0  0  0  0  0  0  0
   -4.2534    0.8240    0.0000 N   0  0  0  0  0  0  0  0  0  0  0  0
   -3.4565    1.0375    0.0000 C   0  0  0  0  0  0  0  0  0  0  0  0
   -2.8732    0.4541    0.0000 N   0  0  0  0  0  0  0  0  0  0  0  0
   -3.2430    1.8344    0.0000 O   0  0  0  0  0  0  0  0  0  0  0  0
   -2.0763    0.6677    0.0000 C   0  0  0  0  0  0  0  0  0  0  0  0
   -1.4929    0.0843    0.0000 C   0  0  0  0  0  0  0  0  0  0  0  0
   -0.6960    0.2978    0.0000 C   0  0  0  0  0  0  0  0  0  0  0  0
   -0.4825    1.0947    0.0000 C   0  0  0  0  0  0  0  0  0  0  0  0
   -1.0659    1.6781    0.0000 C   0  0  0  0  0  0  0  0  0  0  0  0
   -1.8628    1.4645    0.0000 C   0  0  0  0  0  0  0  0  0  0  0  0
   -0.1127   -0.2855    0.0000 S   0  0  0  0  0  0  0  0  0  0  0  0
   -0.3262   -1.0824    0.0000 N   0  0  0  0  0  0  0  0  0  0  0  0
    0.6842   -0.4991    0.0000 O   0  0  0  0  0  0  0  0  0  0  0  0
    0.4707    0.2978    0.0000 O   0  0  0  0  0  0  0  0  0  0  0  0
   -1.1231   -1.2960    0.0000 C   0  0  0  0  0  0  0  0  0  0  0  0
   -1.3366   -2.0929    0.0000 C   0  0  0  0  0  0  0  0  0  0  0  0
   -1.7065   -0.7126    0.0000 C   0  0  0  0  0  0  0  0  0  0  0  0
   -1.9200   -1.5095    0.0000 C   0  0  0  0  0  0  0  0  0  0  0  0
    1.3943    2.0929    0.0000 N   0  0  0  0  0  0  0  0  0  0  0  0
    0.5693    2.0929    0.0000 C   0  0  0  0  0  0  0  0  0  0  0  0
    0.3144    1.3082    0.0000 C   0  0  0  0  0  0  0  0  0  0  0  0
    0.9818    0.8233    0.0000 S   0  0  0  0  0  0  0  0  0  0  0  0
    1.6492    1.3082    0.0000 C   0  0  0  0  0  0  0  0  0  0  0  0
    2.4461    1.0947    0.0000 C   0  0  0  0  0  0  0  0  0  0  0  0
    2.6597    0.2978    0.0000 C   0  0  0  0  0  0  0  0  0  0  0  0
    3.4565    0.0843    0.0000 C   0  0  0  0  0  0  0  0  0  0  0  0
    4.0399    0.6677    0.0000 C   0  0  0  0  0  0  0  0  0  0  0  0
    3.8264    1.4645    0.0000 C   0  0  0  0  0  0  0  0  0  0  0  0
    3.0295    1.6781    0.0000 C   0  0  0  0  0  0  0  0  0  0  0  0
    4.8368    0.4541    0.0000 N   0  0  0  0  0  0  0  0  0  0  0  0
    5.0503   -0.3428    0.0000 C   0  0  0  0  0  0  0  0  0  0  0  0
    5.8472   -0.5563    0.0000 O   0  0  0  0  0  0  0  0  0  0  0  0
    4.4670   -0.9261    0.0000 O   0  0  0  0  0  0  0  0  0  0  0  0
    6.4306    0.0271    0.0000 C   0  0  0  0  0  0  0  0  0  0  0  0
    7.2275   -0.1865    0.0000 C   0  0  0  0  0  0  0  0  0  0  0  0
    6.2171    0.8240    0.0000 C   0  0  0  0  0  0  0  0  0  0  0  0
  1  2  4  0  0  0  0
  2  3  4  0  0  0  0
  3  4  4  0  0  0  0
  4  5  4  0  0  0  0
  5  6  4  0  0  0  0
  6  1  4  0  0  0  0
  3  7  1  0  0  0  0
  7  8  1  0  0  0  0
  8  9  1  0  0  0  0
  9 10  1  0  0  0  0
  9 11  2  0  0  0  0
 10 12  1  0  0  0  0
 12 13  4  0  0  0  0
 13 14  4  0  0  0  0
 14 15  4  0  0  0  0
 15 16  4  0  0  0  0
 16 17  4  0  0  0  0
 17 12  4  0  0  0  0
 15 28  1  0  0  0  0
 14 18  1  0  0  0  0
 18 19  1  0  0  0  0
 18 20  2  0  0  0  0
 21 18  2  0  0  0  0
 19 22  1  0  0  0  0
 22 23  1  0  0  0  0
 22 24  1  0  0  0  0
 22 25  1  0  0  0  0
 26 27  4  0  0  0  0
 27 28  4  0  0  0  0
 28 29  4  0  0  0  0
 29 30  4  0  0  0  0
 30 26  4  0  0  0  0
 30 31  1  0  0  0  0
 31 32  4  0  0  0  0
 32 33  4  0  0  0  0
 33 34  4  0  0  0  0
 34 35  4  0  0  0  0
 35 36  4  0  0  0  0
 36 31  4  0  0  0  0
 34 37  1  0  0  0  0
 37 38  1  0  0  0  0
 38 39  1  0  0  0  0
 38 40  2  0  0  0  0
 39 41  1  0  0  0  0
 41 42  1  0  0  0  0
 41 43  1  0  0  0  0
M  END
> <From>
www.bindingDB.org

> <BindingDB Reactant_set_id>
1155195

> <Ligand InChI>
InChI=1S/C31H35N5O5S2/c1-20(2)41-30(38)35-23-13-11-22(12-14-23)28-32-19-26(42-28)25-16-15-24(17-27(25)43(39,40)36-31(3,4)5)34-29(37)33-18-21-9-7-6-8-10-21/h6-17,19-20,36H,18H2,1-5H3,(H,35,38)(H2,33,34,37)

> <Ligand InChI Key>
ATIVJDBHISWRLD-UHFFFAOYSA-N

> <BindingDB MonomerID>
546346

> <BindingDB Ligand Name>
US11291655, No A2

> <Target Name>
DNA repair protein RAD51 homolog 1

> <Target Source Organism According to Curator or DataSource>
Homo sapiens

> <Ki (nM)>


> <IC50 (nM)>


> <Kd (nM)>


> <EC50 (nM)>
<1000

> <kon (M-1-s-1)>


> <koff (s-1)>


> <pH>


> <Temp C>


> <Curation/DataSource>
US Patent

> <Article DOI>


> <BindingDB Entry DOI>
10.7270/Q2NG4TV0

> <PMID>


> <PubChem AID>
aid1806421

> <Patent Number>
US11291655

> <Authors>
Castro, AC; McComas, CC; Vacca, J

> <Date of publication>
4/5/2022

> <Date in BindingDB>
7/21/2022

> <Institution>
Cyteir Therapeutics, Inc.

> <Link to Ligand in BindingDB>
http://www.bindingdb.org/bind/chemsearch/marvin/MolStructure.jsp?monomerid=546346

> <Link to Ligand-Target Pair in BindingDB>
http://www.bindingdb.org/jsp/dbsearch/PrimarySearch_ki.jsp?energyterm=kJ/mole&tag=pol&polymerid=4676&target=DNA+repair+protein+RAD51+homolog+1&column=ki&startPg=0&Increment=50&submit=Search

> <Link to Ligand-Target Pair in BindingDB>
http://www.bindingdb.org/jsp/dbsearch/PrimarySearch_ki.jsp?energyterm=kJ/mole&tag=r21&monomerid=546346&enzyme=DNA+repair+protein+RAD51+homolog+1&column=ki&startPg=0&Increment=50&submit=Search

> <Ligand HET ID in PDB>


> <PDB ID(s) for Ligand-Target Complex>


> <PubChem CID of Ligand>
137411678

> <PubChem SID of Ligand>
469681042

> <ChEBI ID of Ligand>


> <ChEMBL ID of Ligand>


> <DrugBank ID of Ligand>


> <IUPHAR_GRAC ID of Ligand>


> <KEGG ID of Ligand>


> <ZINC ID of Ligand>


> <Number of Protein Chains in Target (bigger than 1 implies a multichain complex)>
1

> <BindingDB Target Chain Sequence>
MAMQMQLEANADTSVEEESFGPQPISRLEQCGINANDVKKLEEAGFHTVEAVAYAPKKELINIKGISEAKADKILAEAAKLVPMGFTTATEFHQRRSEIIQITTGSKELDKLLQGGIETGSITEMFGEFRTGKTQICHTLAVTCQLPIDRGGGEGKAMYIDTEGTFRPERLLAVAERYGLSGSDVLDNVAYARAFNTDHQTQLLYQASAMMVESRYALLIVDSATALYRTDYSGRGELSARQMHLARFLRMLLRLADEFGVAVVITNQVVAQVDGAAMFAADPKKPIGGNIIAHASTTRLYLRKGRGETRICKIYDSPCLPEAEAMFAINADGVGDAKD

> <PDB ID(s) of Target Chain>
1N0W,5JZC,5NP7,5NWL,8BQ2,8BR2,8BSC

> <UniProt (SwissProt) Recommended Name of Target Chain>
DNA repair protein RAD51 homolog 1

> <UniProt (SwissProt) Entry Name of Target Chain>
RAD51_HUMAN

> <UniProt (SwissProt) Primary ID of Target Chain>
Q06609

> <UniProt (SwissProt) Secondary ID(s) of Target Chain>
B0FXP0 B2R8T6 Q6FHX9 Q6ZNA8 Q9BV60

> <UniProt (SwissProt) Alternative ID(s) of Target Chain>


> <UniProt (TrEMBL) Submitted Name of Target Chain>


> <UniProt (TrEMBL) Entry Name of Target Chain>


> <UniProt (TrEMBL) Primary ID of Target Chain>


> <UniProt (TrEMBL) Secondary ID(s) of Target Chain>


> <UniProt (TrEMBL) Alternative ID(s) of Target Chain>


$$$$
00206001.cdx
  Mrv0541 07212217012D          

 37 40  0  0  0  0            999 V2000
   -3.5223    0.6740    0.0000 C   0  0  0  0  0  0  0  0  0  0  0  0
   -3.5223   -0.1510    0.0000 C   0  0  0  0  0  0  0  0  0  0  0  0
   -2.8078   -0.5635    0.0000 C   0  0  0  0  0  0  0  0  0  0  0  0
   -2.0933   -0.1510    0.0000 C   0  0  0  0  0  0  0  0  0  0  0  0
   -2.0933    0.6740    0.0000 C   0  0  0  0  0  0  0  0  0  0  0  0
   -2.8078    1.0865    0.0000 C   0  0  0  0  0  0  0  0  0  0  0  0
   -4.2367   -0.5635    0.0000 N   0  0  0  0  0  0  0  0  0  0  0  0
   -4.9512   -0.1510    0.0000 C   0  0  0  0  0  0  0  0  0  0  0  0
   -5.6657   -0.5635    0.0000 C   0  0  0  0  0  0  0  0  0  0  0  0
   -4.9512    0.6740    0.0000 O   0  0  0  0  0  0  0  0  0  0  0  0
   -1.3789   -0.5635    0.0000 S   0  0  0  0  0  0  0  0  0  0  0  0
   -0.6644   -0.9760    0.0000 N   0  0  0  0  0  0  0  0  0  0  0  0
   -0.9664    0.1510    0.0000 O   0  0  0  0  0  0  0  0  0  0  0  0
   -1.7914   -1.2780    0.0000 O   0  0  0  0  0  0  0  0  0  0  0  0
   -0.6644   -1.8010    0.0000 C   0  0  0  0  0  0  0  0  0  0  0  0
    0.0501   -2.2135    0.0000 C   0  0  0  0  0  0  0  0  0  0  0  0
    0.7646   -1.8010    0.0000 N   0  0  0  0  0  0  0  0  0  0  0  0
    0.7646   -0.9760    0.0000 C   0  0  0  0  0  0  0  0  0  0  0  0
    0.0501   -0.5635    0.0000 C   0  0  0  0  0  0  0  0  0  0  0  0
   -1.3789    1.9115    0.0000 C   0  0  0  0  0  0  0  0  0  0  0  0
   -1.3789    1.0865    0.0000 C   0  0  0  0  0  0  0  0  0  0  0  0
   -0.5942    0.8316    0.0000 S   0  0  0  0  0  0  0  0  0  0  0  0
   -0.1093    1.4990    0.0000 C   0  0  0  0  0  0  0  0  0  0  0  0
   -0.5942    2.1665    0.0000 N   0  0  0  0  0  0  0  0  0  0  0  0
    0.7157    1.4990    0.0000 C   0  0  0  0  0  0  0  0  0  0  0  0
    1.1282    0.7845    0.0000 C   0  0  0  0  0  0  0  0  0  0  0  0
    1.9532    0.7845    0.0000 C   0  0  0  0  0  0  0  0  0  0  0  0
    2.3657    1.4990    0.0000 C   0  0  0  0  0  0  0  0  0  0  0  0
    1.9532    2.2135    0.0000 C   0  0  0  0  0  0  0  0  0  0  0  0
    1.1282    2.2135    0.0000 C   0  0  0  0  0  0  0  0  0  0  0  0
    3.1907    1.4990    0.0000 N   0  0  0  0  0  0  0  0  0  0  0  0
    3.6032    0.7845    0.0000 C   0  0  0  0  0  0  0  0  0  0  0  0
    4.4282    0.7845    0.0000 N   0  0  0  0  0  0  0  0  0  0  0  0
    3.1907    0.0701    0.0000 S   0  0  0  0  0  0  0  0  0  0  0  0
    4.8407    1.4990    0.0000 C   0  0  0  0  0  0  0  0  0  0  0  0
    5.6657    1.4990    0.0000 C   0  0  0  0  0  0  0  0  0  0  0  0
    4.4282    2.2135    0.0000 C   0  0  0  0  0  0  0  0  0  0  0  0
  1  2  4  0  0  0  0
  2  3  4  0  0  0  0
  3  4  4  0  0  0  0
  4  5  4  0  0  0  0
  5  6  4  0  0  0  0
  6  1  4  0  0  0  0
  2  7  1  0  0  0  0
  7  8  1  0  0  0  0
  8  9  1  0  0  0  0
  8 10  2  0  0  0  0
  4 11  1  0  0  0  0
 11 12  1  0  0  0  0
 11 13  2  0  0  0  0
 11 14  2  0  0  0  0
 12 15  1  0  0  0  0
 15 16  1  0  0  0  0
 16 17  1  0  0  0  0
 17 18  1  0  0  0  0
 18 19  1  0  0  0  0
 19 12  1  0  0  0  0
  5 21  1  0  0  0  0
 20 21  4  0  0  0  0
 21 22  4  0  0  0  0
 22 23  4  0  0  0  0
 23 24  4  0  0  0  0
 24 20  4  0  0  0  0
 23 25  1  0  0  0  0
 25 26  4  0  0  0  0
 26 27  4  0  0  0  0
 27 28  4  0  0  0  0
 28 29  4  0  0  0  0
 29 30  4  0  0  0  0
 30 25  4  0  0  0  0
 28 31  1  0  0  0  0
 31 32  1  0  0  0  0
 32 33  1  0  0  0  0
 32 34  2  0  0  0  0
 33 35  1  0  0  0  0
 35 36  1  0  0  0  0
 35 37  1  0  0  0  0
M  END
> <From>
www.bindingDB.org

> <BindingDB Reactant_set_id>
1155196

> <Ligand InChI>
InChI=1S/C25H30N6O3S3/c1-16(2)28-25(35)30-19-6-4-18(5-7-19)24-27-15-22(36-24)21-9-8-20(29-17(3)32)14-23(21)37(33,34)31-12-10-26-11-13-31/h4-9,14-16,26H,10-13H2,1-3H3,(H,29,32)(H2,28,30,35)

> <Ligand InChI Key>
COIRPJLCNJSYHO-UHFFFAOYSA-N

> <BindingDB MonomerID>
546347

> <BindingDB Ligand Name>
US11291655, No A3

> <Target Name>
DNA repair protein RAD51 homolog 1

> <Target Source Organism According to Curator or DataSource>
Homo sapiens

> <Ki (nM)>


> <IC50 (nM)>


> <Kd (nM)>


> <EC50 (nM)>
<5000

> <kon (M-1-s-1)>


> <koff (s-1)>


> <pH>


> <Temp C>


> <Curation/DataSource>
US Patent

> <Article DOI>


> <BindingDB Entry DOI>
10.7270/Q2NG4TV0

> <PMID>


> <PubChem AID>
aid1806421

> <Patent Number>
US11291655

> <Authors>
Castro, AC; McComas, CC; Vacca, J

> <Date of publication>
4/5/2022

> <Date in BindingDB>
7/21/2022

> <Institution>
Cyteir Therapeutics, Inc.

> <Link to Ligand in BindingDB>
http://www.bindingdb.org/bind/chemsearch/marvin/MolStructure.jsp?monomerid=546347

> <Link to Ligand-Target Pair in BindingDB>
http://www.bindingdb.org/jsp/dbsearch/PrimarySearch_ki.jsp?energyterm=kJ/mole&tag=pol&polymerid=4676&target=DNA+repair+protein+RAD51+homolog+1&column=ki&startPg=0&Increment=50&submit=Search

> <Link to Ligand-Target Pair in BindingDB>
http://www.bindingdb.org/jsp/dbsearch/PrimarySearch_ki.jsp?energyterm=kJ/mole&tag=r21&monomerid=546347&enzyme=DNA+repair+protein+RAD51+homolog+1&column=ki&startPg=0&Increment=50&submit=Search

> <Ligand HET ID in PDB>


> <PDB ID(s) for Ligand-Target Complex>


> <PubChem CID of Ligand>
137411744

> <PubChem SID of Ligand>
469681043

> <ChEBI ID of Ligand>


> <ChEMBL ID of Ligand>


> <DrugBank ID of Ligand>


> <IUPHAR_GRAC ID of Ligand>


> <KEGG ID of Ligand>


> <ZINC ID of Ligand>


> <Number of Protein Chains in Target (bigger than 1 implies a multichain complex)>
1

> <BindingDB Target Chain Sequence>
MAMQMQLEANADTSVEEESFGPQPISRLEQCGINANDVKKLEEAGFHTVEAVAYAPKKELINIKGISEAKADKILAEAAKLVPMGFTTATEFHQRRSEIIQITTGSKELDKLLQGGIETGSITEMFGEFRTGKTQICHTLAVTCQLPIDRGGGEGKAMYIDTEGTFRPERLLAVAERYGLSGSDVLDNVAYARAFNTDHQTQLLYQASAMMVESRYALLIVDSATALYRTDYSGRGELSARQMHLARFLRMLLRLADEFGVAVVITNQVVAQVDGAAMFAADPKKPIGGNIIAHASTTRLYLRKGRGETRICKIYDSPCLPEAEAMFAINADGVGDAKD

> <PDB ID(s) of Target Chain>
1N0W,5JZC,5NP7,5NWL,8BQ2,8BR2,8BSC

> <UniProt (SwissProt) Recommended Name of Target Chain>
DNA repair protein RAD51 homolog 1

> <UniProt (SwissProt) Entry Name of Target Chain>
RAD51_HUMAN

> <UniProt (SwissProt) Primary ID of Target Chain>
Q06609

> <UniProt (SwissProt) Secondary ID(s) of Target Chain>
B0FXP0 B2R8T6 Q6FHX9 Q6ZNA8 Q9BV60

> <UniProt (SwissProt) Alternative ID(s) of Target Chain>


> <UniProt (TrEMBL) Submitted Name of Target Chain>


> <UniProt (TrEMBL) Entry Name of Target Chain>


> <UniProt (TrEMBL) Primary ID of Target Chain>


> <UniProt (TrEMBL) Secondary ID(s) of Target Chain>


> <UniProt (TrEMBL) Alternative ID(s) of Target Chain>


$$$$
00207001.cdx
  Mrv0541 07212217012D          

 30 32  0  0  0  0            999 V2000
   -2.2848    0.2063    0.0000 C   0  0  0  0  0  0  0  0  0  0  0  0
   -2.2848   -0.6187    0.0000 C   0  0  0  0  0  0  0  0  0  0  0  0
   -1.5703   -1.0312    0.0000 C   0  0  0  0  0  0  0  0  0  0  0  0
   -0.8558   -0.6187    0.0000 C   0  0  0  0  0  0  0  0  0  0  0  0
   -0.8558    0.2063    0.0000 C   0  0  0  0  0  0  0  0  0  0  0  0
   -1.5703    0.6188    0.0000 C   0  0  0  0  0  0  0  0  0  0  0  0
   -2.9992   -1.0312    0.0000 N   0  0  0  0  0  0  0  0  0  0  0  0
   -3.7137   -0.6187    0.0000 C   0  0  0  0  0  0  0  0  0  0  0  0
   -4.4282   -1.0312    0.0000 C   0  0  0  0  0  0  0  0  0  0  0  0
   -3.7137    0.2063    0.0000 O   0  0  0  0  0  0  0  0  0  0  0  0
   -0.1414   -1.0312    0.0000 S   0  0  0  0  0  0  0  0  0  0  0  0
    0.5731   -1.4437    0.0000 N   0  0  0  0  0  0  0  0  0  0  0  0
    0.2711   -0.3168    0.0000 O   0  0  0  0  0  0  0  0  0  0  0  0
   -0.5539   -1.7457    0.0000 O   0  0  0  0  0  0  0  0  0  0  0  0
    1.2876   -1.0312    0.0000 C   0  0  0  0  0  0  0  0  0  0  0  0
   -0.1414    1.4438    0.0000 C   0  0  0  0  0  0  0  0  0  0  0  0
   -0.1414    0.6188    0.0000 C   0  0  0  0  0  0  0  0  0  0  0  0
    0.6433    0.3638    0.0000 S   0  0  0  0  0  0  0  0  0  0  0  0
    1.1282    1.0313    0.0000 C   0  0  0  0  0  0  0  0  0  0  0  0
    0.6433    1.6987    0.0000 N   0  0  0  0  0  0  0  0  0  0  0  0
    1.9532    1.0313    0.0000 C   0  0  0  0  0  0  0  0  0  0  0  0
    2.3657    0.3168    0.0000 C   0  0  0  0  0  0  0  0  0  0  0  0
    3.1907    0.3168    0.0000 C   0  0  0  0  0  0  0  0  0  0  0  0
    3.6032    1.0313    0.0000 C   0  0  0  0  0  0  0  0  0  0  0  0
    3.1907    1.7457    0.0000 C   0  0  0  0  0  0  0  0  0  0  0  0
    2.3657    1.7457    0.0000 C   0  0  0  0  0  0  0  0  0  0  0  0
    4.4282    1.0313    0.0000 N   0  0  0  0  0  0  0  0  0  0  0  0
    2.0021   -1.4437    0.0000 C   0  0  0  0  0  0  0  0  0  0  0  0
    1.2876   -0.2062    0.0000 C   0  0  0  0  0  0  0  0  0  0  0  0
    2.0021   -0.6187    0.0000 C   0  0  0  0  0  0  0  0  0  0  0  0
  1  2  4  0  0  0  0
  2  3  4  0  0  0  0
  3  4  4  0  0  0  0
  4  5  4  0  0  0  0
  5  6  4  0  0  0  0
  6  1  4  0  0  0  0
  2  7  1  0  0  0  0
  7  8  1  0  0  0  0
  8  9  1  0  0  0  0
  8 10  2  0  0  0  0
  4 11  1  0  0  0  0
 11 12  1  0  0  0  0
 11 13  2  0  0  0  0
 11 14  2  0  0  0  0
 15 12  1  0  0  0  0
  5 17  1  0  0  0  0
 16 17  4  0  0  0  0
 17 18  4  0  0  0  0
 18 19  4  0  0  0  0
 19 20  4  0  0  0  0
 20 16  4  0  0  0  0
 19 21  1  0  0  0  0
 21 22  4  0  0  0  0
 22 23  4  0  0  0  0
 23 24  4  0  0  0  0
 24 25  4  0  0  0  0
 25 26  4  0  0  0  0
 26 21  4  0  0  0  0
 24 27  1  0  0  0  0
 15 28  1  0  0  0  0
 15 29  1  0  0  0  0
 15 30  1  0  0  0  0
M  END
> <From>
www.bindingDB.org

> <BindingDB Reactant_set_id>
1155197

> <Ligand InChI>
InChI=1S/C21H24N4O3S2/c1-13(26)24-16-9-10-17(19(11-16)30(27,28)25-21(2,3)4)18-12-23-20(29-18)14-5-7-15(22)8-6-14/h5-12,25H,22H2,1-4H3,(H,24,26)

> <Ligand InChI Key>
DDGSZUIMCLBDHG-UHFFFAOYSA-N

> <BindingDB MonomerID>
546348

> <BindingDB Ligand Name>
US11291655, No A4

> <Target Name>
DNA repair protein RAD51 homolog 1

> <Target Source Organism According to Curator or DataSource>
Homo sapiens

> <Ki (nM)>


> <IC50 (nM)>


> <Kd (nM)>


> <EC50 (nM)>
<10000

> <kon (M-1-s-1)>


> <koff (s-1)>


> <pH>


> <Temp C>


> <Curation/DataSource>
US Patent

> <Article DOI>


> <BindingDB Entry DOI>
10.7270/Q2NG4TV0

> <PMID>


> <PubChem AID>
aid1806421

> <Patent Number>
US11291655

> <Authors>
Castro, AC; McComas, CC; Vacca, J

> <Date of publication>
4/5/2022

> <Date in BindingDB>
7/21/2022

> <Institution>
Cyteir Therapeutics, Inc.

> <Link to Ligand in BindingDB>
http://www.bindingdb.org/bind/chemsearch/marvin/MolStructure.jsp?monomerid=546348

> <Link to Ligand-Target Pair in BindingDB>
http://www.bindingdb.org/jsp/dbsearch/PrimarySearch_ki.jsp?energyterm=kJ/mole&tag=pol&polymerid=4676&target=DNA+repair+protein+RAD51+homolog+1&column=ki&startPg=0&Increment=50&submit=Search

> <Link to Ligand-Target Pair in BindingDB>
http://www.bindingdb.org/jsp/dbsearch/PrimarySearch_ki.jsp?energyterm=kJ/mole&tag=r21&monomerid=546348&enzyme=DNA+repair+protein+RAD51+homolog+1&column=ki&startPg=0&Increment=50&submit=Search

> <Ligand HET ID in PDB>


> <PDB ID(s) for Ligand-Target Complex>


> <PubChem CID of Ligand>
137408596

> <PubChem SID of Ligand>
469681044

> <ChEBI ID of Ligand>


> <ChEMBL ID of Ligand>


> <DrugBank ID of Ligand>


> <IUPHAR_GRAC ID of Ligand>


> <KEGG ID of Ligand>


> <ZINC ID of Ligand>


> <Number of Protein Chains in Target (bigger than 1 implies a multichain complex)>
1

> <BindingDB Target Chain Sequence>
MAMQMQLEANADTSVEEESFGPQPISRLEQCGINANDVKKLEEAGFHTVEAVAYAPKKELINIKGISEAKADKILAEAAKLVPMGFTTATEFHQRRSEIIQITTGSKELDKLLQGGIETGSITEMFGEFRTGKTQICHTLAVTCQLPIDRGGGEGKAMYIDTEGTFRPERLLAVAERYGLSGSDVLDNVAYARAFNTDHQTQLLYQASAMMVESRYALLIVDSATALYRTDYSGRGELSARQMHLARFLRMLLRLADEFGVAVVITNQVVAQVDGAAMFAADPKKPIGGNIIAHASTTRLYLRKGRGETRICKIYDSPCLPEAEAMFAINADGVGDAKD

> <PDB ID(s) of Target Chain>
1N0W,5JZC,5NP7,5NWL,8BQ2,8BR2,8BSC

> <UniProt (SwissProt) Recommended Name of Target Chain>
DNA repair protein RAD51 homolog 1

> <UniProt (SwissProt) Entry Name of Target Chain>
RAD51_HUMAN

> <UniProt (SwissProt) Primary ID of Target Chain>
Q06609

> <UniProt (SwissProt) Secondary ID(s) of Target Chain>
B0FXP0 B2R8T6 Q6FHX9 Q6ZNA8 Q9BV60

> <UniProt (SwissProt) Alternative ID(s) of Target Chain>


> <UniProt (TrEMBL) Submitted Name of Target Chain>


> <UniProt (TrEMBL) Entry Name of Target Chain>


> <UniProt (TrEMBL) Primary ID of Target Chain>


> <UniProt (TrEMBL) Secondary ID(s) of Target Chain>


> <UniProt (TrEMBL) Alternative ID(s) of Target Chain>


$$$$
00208001.cdx
  Mrv0541 07212217012D          

 36 38  0  0  0  0            999 V2000
   -3.5223    0.2063    0.0000 C   0  0  0  0  0  0  0  0  0  0  0  0
   -3.5223   -0.6187    0.0000 C   0  0  0  0  0  0  0  0  0  0  0  0
   -2.8078   -1.0312    0.0000 C   0  0  0  0  0  0  0  0  0  0  0  0
   -2.0933   -0.6187    0.0000 C   0  0  0  0  0  0  0  0  0  0  0  0
   -2.0933    0.2063    0.0000 C   0  0  0  0  0  0  0  0  0  0  0  0
   -2.8078    0.6188    0.0000 C   0  0  0  0  0  0  0  0  0  0  0  0
   -4.2367   -1.0312    0.0000 N   0  0  0  0  0  0  0  0  0  0  0  0
   -4.9512   -0.6187    0.0000 C   0  0  0  0  0  0  0  0  0  0  0  0
   -5.6657   -1.0312    0.0000 C   0  0  0  0  0  0  0  0  0  0  0  0
   -4.9512    0.2063    0.0000 O   0  0  0  0  0  0  0  0  0  0  0  0
   -1.3789   -1.0312    0.0000 S   0  0  0  0  0  0  0  0  0  0  0  0
   -0.6644   -1.4437    0.0000 N   0  0  0  0  0  0  0  0  0  0  0  0
   -0.9664   -0.3168    0.0000 O   0  0  0  0  0  0  0  0  0  0  0  0
   -1.7914   -1.7457    0.0000 O   0  0  0  0  0  0  0  0  0  0  0  0
    0.0501   -1.0312    0.0000 C   0  0  0  0  0  0  0  0  0  0  0  0
   -1.3789    1.4438    0.0000 C   0  0  0  0  0  0  0  0  0  0  0  0
   -1.3789    0.6188    0.0000 C   0  0  0  0  0  0  0  0  0  0  0  0
   -0.5942    0.3638    0.0000 S   0  0  0  0  0  0  0  0  0  0  0  0
   -0.1093    1.0313    0.0000 C   0  0  0  0  0  0  0  0  0  0  0  0
   -0.5942    1.6987    0.0000 N   0  0  0  0  0  0  0  0  0  0  0  0
    0.7157    1.0313    0.0000 C   0  0  0  0  0  0  0  0  0  0  0  0
    1.1282    0.3168    0.0000 C   0  0  0  0  0  0  0  0  0  0  0  0
    1.9532    0.3168    0.0000 C   0  0  0  0  0  0  0  0  0  0  0  0
    2.3657    1.0313    0.0000 C   0  0  0  0  0  0  0  0  0  0  0  0
    1.9532    1.7457    0.0000 C   0  0  0  0  0  0  0  0  0  0  0  0
    1.1282    1.7457    0.0000 C   0  0  0  0  0  0  0  0  0  0  0  0
    3.1907    1.0313    0.0000 O   0  0  0  0  0  0  0  0  0  0  0  0
    3.6032    0.3168    0.0000 C   0  0  0  0  0  0  0  0  0  0  0  0
    4.4282    0.3168    0.0000 N   0  0  0  0  0  0  0  0  0  0  0  0
    3.1907   -0.3977    0.0000 O   0  0  0  0  0  0  0  0  0  0  0  0
    4.8407    1.0313    0.0000 C   0  0  0  0  0  0  0  0  0  0  0  0
    5.6657    1.0313    0.0000 C   0  0  0  0  0  0  0  0  0  0  0  0
    4.4282    1.7457    0.0000 C   0  0  0  0  0  0  0  0  0  0  0  0
    0.7646   -1.4437    0.0000 C   0  0  0  0  0  0  0  0  0  0  0  0
    0.0501   -0.2062    0.0000 C   0  0  0  0  0  0  0  0  0  0  0  0
    0.7646   -0.6187    0.0000 C   0  0  0  0  0  0  0  0  0  0  0  0
  1  2  4  0  0  0  0
  2  3  4  0  0  0  0
  3  4  4  0  0  0  0
  4  5  4  0  0  0  0
  5  6  4  0  0  0  0
  6  1  4  0  0  0  0
  2  7  1  0  0  0  0
  7  8  1  0  0  0  0
  8  9  1  0  0  0  0
  8 10  2  0  0  0  0
  4 11  1  0  0  0  0
 11 12  1  0  0  0  0
 11 13  2  0  0  0  0
 11 14  2  0  0  0  0
 15 12  1  0  0  0  0
  5 17  1  0  0  0  0
 16 17  4  0  0  0  0
 17 18  4  0  0  0  0
 18 19  4  0  0  0  0
 19 20  4  0  0  0  0
 20 16  4  0  0  0  0
 19 21  1  0  0  0  0
 21 22  4  0  0  0  0
 22 23  4  0  0  0  0
 23 24  4  0  0  0  0
 24 25  4  0  0  0  0
 25 26  4  0  0  0  0
 26 21  4  0  0  0  0
 24 27  1  0  0  0  0
 27 28  1  0  0  0  0
 28 29  1  0  0  0  0
 28 30  2  0  0  0  0
 29 31  1  0  0  0  0
 31 32  1  0  0  0  0
 31 33  1  0  0  0  0
 15 34  1  0  0  0  0
 15 35  1  0  0  0  0
 15 36  1  0  0  0  0
M  END
> <From>
www.bindingDB.org

> <BindingDB Reactant_set_id>
1155198

> <Ligand InChI>
InChI=1S/C25H30N4O5S2/c1-15(2)27-24(31)34-19-10-7-17(8-11-19)23-26-14-21(35-23)20-12-9-18(28-16(3)30)13-22(20)36(32,33)29-25(4,5)6/h7-15,29H,1-6H3,(H,27,31)(H,28,30)

> <Ligand InChI Key>
HYHRPNGNXPYNNP-UHFFFAOYSA-N

> <BindingDB MonomerID>
546349

> <BindingDB Ligand Name>
US11291655, No A5

> <Target Name>
DNA repair protein RAD51 homolog 1

> <Target Source Organism According to Curator or DataSource>
Homo sapiens

> <Ki (nM)>


> <IC50 (nM)>


> <Kd (nM)>


> <EC50 (nM)>
<5000

> <kon (M-1-s-1)>


> <koff (s-1)>


> <pH>


> <Temp C>


> <Curation/DataSource>
US Patent

> <Article DOI>


> <BindingDB Entry DOI>
10.7270/Q2NG4TV0

> <PMID>


> <PubChem AID>
aid1806421

> <Patent Number>
US11291655

> <Authors>
Castro, AC; McComas, CC; Vacca, J

> <Date of publication>
4/5/2022

> <Date in BindingDB>
7/21/2022

> <Institution>
Cyteir Therapeutics, Inc.

> <Link to Ligand in BindingDB>
http://www.bindingdb.org/bind/chemsearch/marvin/MolStructure.jsp?monomerid=546349

> <Link to Ligand-Target Pair in BindingDB>
http://www.bindingdb.org/jsp/dbsearch/PrimarySearch_ki.jsp?energyterm=kJ/mole&tag=pol&polymerid=4676&target=DNA+repair+protein+RAD51+homolog+1&column=ki&startPg=0&Increment=50&submit=Search

> <Link to Ligand-Target Pair in BindingDB>
http://www.bindingdb.org/jsp/dbsearch/PrimarySearch_ki.jsp?energyterm=kJ/mole&tag=r21&monomerid=546349&enzyme=DNA+repair+protein+RAD51+homolog+1&column=ki&startPg=0&Increment=50&submit=Search

> <Ligand HET ID in PDB>


> <PDB ID(s) for Ligand-Target Complex>


> <PubChem CID of Ligand>
137411738

> <PubChem SID of Ligand>
469681045

> <ChEBI ID of Ligand>


> <ChEMBL ID of Ligand>


> <DrugBank ID of Ligand>


> <IUPHAR_GRAC ID of Ligand>


> <KEGG ID of Ligand>


> <ZINC ID of Ligand>


> <Number of Protein Chains in Target (bigger than 1 implies a multichain complex)>
1

> <BindingDB Target Chain Sequence>
MAMQMQLEANADTSVEEESFGPQPISRLEQCGINANDVKKLEEAGFHTVEAVAYAPKKELINIKGISEAKADKILAEAAKLVPMGFTTATEFHQRRSEIIQITTGSKELDKLLQGGIETGSITEMFGEFRTGKTQICHTLAVTCQLPIDRGGGEGKAMYIDTEGTFRPERLLAVAERYGLSGSDVLDNVAYARAFNTDHQTQLLYQASAMMVESRYALLIVDSATALYRTDYSGRGELSARQMHLARFLRMLLRLADEFGVAVVITNQVVAQVDGAAMFAADPKKPIGGNIIAHASTTRLYLRKGRGETRICKIYDSPCLPEAEAMFAINADGVGDAKD

> <PDB ID(s) of Target Chain>
1N0W,5JZC,5NP7,5NWL,8BQ2,8BR2,8BSC

> <UniProt (SwissProt) Recommended Name of Target Chain>
DNA repair protein RAD51 homolog 1

> <UniProt (SwissProt) Entry Name of Target Chain>
RAD51_HUMAN

> <UniProt (SwissProt) Primary ID of Target Chain>
Q06609

> <UniProt (SwissProt) Secondary ID(s) of Target Chain>
B0FXP0 B2R8T6 Q6FHX9 Q6ZNA8 Q9BV60

> <UniProt (SwissProt) Alternative ID(s) of Target Chain>


> <UniProt (TrEMBL) Submitted Name of Target Chain>


> <UniProt (TrEMBL) Entry Name of Target Chain>


> <UniProt (TrEMBL) Primary ID of Target Chain>


> <UniProt (TrEMBL) Secondary ID(s) of Target Chain>


> <UniProt (TrEMBL) Alternative ID(s) of Target Chain>


$$$$
00209001.cdx
  Mrv0541 07212217012D          

 37 40  0  0  0  0            999 V2000
   -0.1154    2.0929    0.0000 N   0  0  0  0  0  0  0  0  0  0  0  0
   -0.9404    2.0929    0.0000 C   0  0  0  0  0  0  0  0  0  0  0  0
   -1.1953    1.3082    0.0000 C   0  0  0  0  0  0  0  0  0  0  0  0
   -0.5279    0.8233    0.0000 S   0  0  0  0  0  0  0  0  0  0  0  0
    0.1395    1.3082    0.0000 C   0  0  0  0  0  0  0  0  0  0  0  0
   -1.9922    1.0947    0.0000 C   0  0  0  0  0  0  0  0  0  0  0  0
   -2.5756    1.6781    0.0000 C   0  0  0  0  0  0  0  0  0  0  0  0
   -3.3725    1.4645    0.0000 C   0  0  0  0  0  0  0  0  0  0  0  0
   -3.5860    0.6677    0.0000 C   0  0  0  0  0  0  0  0  0  0  0  0
   -3.0026    0.0843    0.0000 C   0  0  0  0  0  0  0  0  0  0  0  0
   -2.2057    0.2978    0.0000 C   0  0  0  0  0  0  0  0  0  0  0  0
    0.9364    1.0947    0.0000 C   0  0  0  0  0  0  0  0  0  0  0  0
    1.1500    0.2978    0.0000 C   0  0  0  0  0  0  0  0  0  0  0  0
    1.9468    0.0843    0.0000 C   0  0  0  0  0  0  0  0  0  0  0  0
    2.5302    0.6677    0.0000 C   0  0  0  0  0  0  0  0  0  0  0  0
    2.3167    1.4645    0.0000 C   0  0  0  0  0  0  0  0  0  0  0  0
    1.5198    1.6781    0.0000 C   0  0  0  0  0  0  0  0  0  0  0  0
    3.3271    0.4541    0.0000 N   0  0  0  0  0  0  0  0  0  0  0  0
    3.5406   -0.3428    0.0000 C   0  0  0  0  0  0  0  0  0  0  0  0
    4.3375   -0.5563    0.0000 O   0  0  0  0  0  0  0  0  0  0  0  0
    2.9573   -0.9261    0.0000 O   0  0  0  0  0  0  0  0  0  0  0  0
    4.9209    0.0271    0.0000 C   0  0  0  0  0  0  0  0  0  0  0  0
    5.7178   -0.1865    0.0000 C   0  0  0  0  0  0  0  0  0  0  0  0
    4.7074    0.8240    0.0000 C   0  0  0  0  0  0  0  0  0  0  0  0
   -1.6224   -0.2855    0.0000 S   0  0  0  0  0  0  0  0  0  0  0  0
   -1.8359   -1.0824    0.0000 N   0  0  0  0  0  0  0  0  0  0  0  0
   -0.9073   -0.6980    0.0000 O   0  0  0  0  0  0  0  0  0  0  0  0
   -0.9073    0.1270    0.0000 O   0  0  0  0  0  0  0  0  0  0  0  0
   -2.6328   -1.2960    0.0000 C   0  0  0  0  0  0  0  0  0  0  0  0
   -2.8463   -2.0929    0.0000 C   0  0  0  0  0  0  0  0  0  0  0  0
   -3.2162   -0.7126    0.0000 C   0  0  0  0  0  0  0  0  0  0  0  0
   -3.4297   -1.5095    0.0000 C   0  0  0  0  0  0  0  0  0  0  0  0
   -5.4628   -0.3305    0.0000 C   0  0  0  0  0  0  0  0  0  0  0  0
   -4.6378   -0.3305    0.0000 N   0  0  0  0  0  0  0  0  0  0  0  0
   -4.3829    0.4541    0.0000 C   0  0  0  0  0  0  0  0  0  0  0  0
   -5.0503    0.9390    0.0000 C   0  0  0  0  0  0  0  0  0  0  0  0
   -5.7178    0.4541    0.0000 N   0  0  0  0  0  0  0  0  0  0  0  0
  1  2  4  0  0  0  0
  2  3  4  0  0  0  0
  3  4  4  0  0  0  0
  4  5  4  0  0  0  0
  5  1  4  0  0  0  0
  3  6  1  0  0  0  0
  6  7  4  0  0  0  0
  7  8  4  0  0  0  0
  8  9  4  0  0  0  0
  9 10  4  0  0  0  0
 10 11  4  0  0  0  0
 11  6  4  0  0  0  0
  5 12  1  0  0  0  0
 12 13  4  0  0  0  0
 13 14  4  0  0  0  0
 14 15  4  0  0  0  0
 15 16  4  0  0  0  0
 16 17  4  0  0  0  0
 17 12  4  0  0  0  0
  9 35  1  0  0  0  0
 15 18  1  0  0  0  0
 18 19  1  0  0  0  0
 19 20  1  0  0  0  0
 19 21  2  0  0  0  0
 20 22  1  0  0  0  0
 22 23  1  0  0  0  0
 22 24  1  0  0  0  0
 11 25  1  0  0  0  0
 25 26  1  0  0  0  0
 25 27  2  0  0  0  0
 28 25  2  0  0  0  0
 26 29  1  0  0  0  0
 29 30  1  0  0  0  0
 29 31  1  0  0  0  0
 29 32  1  0  0  0  0
 33 34  4  0  0  0  0
 34 35  4  0  0  0  0
 35 36  4  0  0  0  0
 36 37  4  0  0  0  0
 37 33  4  0  0  0  0
M  STY  1   1 DAT
M  SAL   1  1  34
M  SDT   1 MRV_IMPLICIT_H                                        
M  SDD   1     0.0000    0.0000    DR    ALL  0       0  
M  SED   1 IMPL_H1
M  END
> <From>
www.bindingDB.org

> <BindingDB Reactant_set_id>
1155199

> <Ligand InChI>
InChI=1S/C26H29N5O4S2/c1-16(2)35-25(32)30-19-9-6-17(7-10-19)24-28-14-22(36-24)20-11-8-18(21-13-27-15-29-21)12-23(20)37(33,34)31-26(3,4)5/h6-16,31H,1-5H3,(H,27,29)(H,30,32)

> <Ligand InChI Key>
BGGXDHSUFVUWHL-UHFFFAOYSA-N

> <BindingDB MonomerID>
546350

> <BindingDB Ligand Name>
US11291655, No A6

> <Target Name>
DNA repair protein RAD51 homolog 1

> <Target Source Organism According to Curator or DataSource>
Homo sapiens

> <Ki (nM)>


> <IC50 (nM)>


> <Kd (nM)>


> <EC50 (nM)>
<5000

> <kon (M-1-s-1)>


> <koff (s-1)>


> <pH>


> <Temp C>


> <Curation/DataSource>
US Patent

> <Article DOI>


> <BindingDB Entry DOI>
10.7270/Q2NG4TV0

> <PMID>


> <PubChem AID>
aid1806421

> <Patent Number>
US11291655

> <Authors>
Castro, AC; McComas, CC; Vacca, J

> <Date of publication>
4/5/2022

> <Date in BindingDB>
7/21/2022

> <Institution>
Cyteir Therapeutics, Inc.

> <Link to Ligand in BindingDB>
http://www.bindingdb.org/bind/chemsearch/marvin/MolStructure.jsp?monomerid=546350

> <Link to Ligand-Target Pair in BindingDB>
http://www.bindingdb.org/jsp/dbsearch/PrimarySearch_ki.jsp?energyterm=kJ/mole&tag=pol&polymerid=4676&target=DNA+repair+protein+RAD51+homolog+1&column=ki&startPg=0&Increment=50&submit=Search

> <Link to Ligand-Target Pair in BindingDB>
http://www.bindingdb.org/jsp/dbsearch/PrimarySearch_ki.jsp?energyterm=kJ/mole&tag=r21&monomerid=546350&enzyme=DNA+repair+protein+RAD51+homolog+1&column=ki&startPg=0&Increment=50&submit=Search

> <Ligand HET ID in PDB>


> <PDB ID(s) for Ligand-Target Complex>


> <PubChem CID of Ligand>
137412036

> <PubChem SID of Ligand>
469681046

> <ChEBI ID of Ligand>


> <ChEMBL ID of Ligand>


> <DrugBank ID of Ligand>


> <IUPHAR_GRAC ID of Ligand>


> <KEGG ID of Ligand>


> <ZINC ID of Ligand>


> <Number of Protein Chains in Target (bigger than 1 implies a multichain complex)>
1

> <BindingDB Target Chain Sequence>
MAMQMQLEANADTSVEEESFGPQPISRLEQCGINANDVKKLEEAGFHTVEAVAYAPKKELINIKGISEAKADKILAEAAKLVPMGFTTATEFHQRRSEIIQITTGSKELDKLLQGGIETGSITEMFGEFRTGKTQICHTLAVTCQLPIDRGGGEGKAMYIDTEGTFRPERLLAVAERYGLSGSDVLDNVAYARAFNTDHQTQLLYQASAMMVESRYALLIVDSATALYRTDYSGRGELSARQMHLARFLRMLLRLADEFGVAVVITNQVVAQVDGAAMFAADPKKPIGGNIIAHASTTRLYLRKGRGETRICKIYDSPCLPEAEAMFAINADGVGDAKD

> <PDB ID(s) of Target Chain>
1N0W,5JZC,5NP7,5NWL,8BQ2,8BR2,8BSC

> <UniProt (SwissProt) Recommended Name of Target Chain>
DNA repair protein RAD51 homolog 1

> <UniProt (SwissProt) Entry Name of Target Chain>
RAD51_HUMAN

> <UniProt (SwissProt) Primary ID of Target Chain>
Q06609

> <UniProt (SwissProt) Secondary ID(s) of Target Chain>
B0FXP0 B2R8T6 Q6FHX9 Q6ZNA8 Q9BV60

> <UniProt (SwissProt) Alternative ID(s) of Target Chain>


> <UniProt (TrEMBL) Submitted Name of Target Chain>


> <UniProt (TrEMBL) Entry Name of Target Chain>


> <UniProt (TrEMBL) Primary ID of Target Chain>


> <UniProt (TrEMBL) Secondary ID(s) of Target Chain>


> <UniProt (TrEMBL) Alternative ID(s) of Target Chain>


$$$$
00210001.cdx
  Mrv0541 07212217012D          

 39 42  0  0  0  0            999 V2000
   -0.1154    2.0929    0.0000 N   0  0  0  0  0  0  0  0  0  0  0  0
   -0.9404    2.0929    0.0000 C   0  0  0  0  0  0  0  0  0  0  0  0
   -1.1953    1.3082    0.0000 C   0  0  0  0  0  0  0  0  0  0  0  0
   -0.5279    0.8233    0.0000 S   0  0  0  0  0  0  0  0  0  0  0  0
    0.1395    1.3082    0.0000 C   0  0  0  0  0  0  0  0  0  0  0  0
   -1.9922    1.0947    0.0000 C   0  0  0  0  0  0  0  0  0  0  0  0
   -2.5756    1.6781    0.0000 C   0  0  0  0  0  0  0  0  0  0  0  0
   -3.3725    1.4645    0.0000 C   0  0  0  0  0  0  0  0  0  0  0  0
   -3.5860    0.6677    0.0000 C   0  0  0  0  0  0  0  0  0  0  0  0
   -3.0026    0.0843    0.0000 C   0  0  0  0  0  0  0  0  0  0  0  0
   -2.2057    0.2978    0.0000 C   0  0  0  0  0  0  0  0  0  0  0  0
    0.9364    1.0947    0.0000 C   0  0  0  0  0  0  0  0  0  0  0  0
    1.1500    0.2978    0.0000 C   0  0  0  0  0  0  0  0  0  0  0  0
    1.9468    0.0843    0.0000 C   0  0  0  0  0  0  0  0  0  0  0  0
    2.5302    0.6677    0.0000 C   0  0  0  0  0  0  0  0  0  0  0  0
    2.3167    1.4645    0.0000 C   0  0  0  0  0  0  0  0  0  0  0  0
    1.5198    1.6781    0.0000 C   0  0  0  0  0  0  0  0  0  0  0  0
    3.3271    0.4541    0.0000 N   0  0  0  0  0  0  0  0  0  0  0  0
    3.5406   -0.3428    0.0000 C   0  0  0  0  0  0  0  0  0  0  0  0
    4.3375   -0.5563    0.0000 N   0  0  0  0  0  0  0  0  0  0  0  0
    2.9573   -0.9261    0.0000 O   0  0  0  0  0  0  0  0  0  0  0  0
    4.9209    0.0271    0.0000 C   0  0  0  0  0  0  0  0  0  0  0  0
    5.7178   -0.1865    0.0000 C   0  0  0  0  0  0  0  0  0  0  0  0
    4.7074    0.8240    0.0000 C   0  0  0  0  0  0  0  0  0  0  0  0
   -1.6224   -0.2855    0.0000 S   0  0  0  0  0  0  0  0  0  0  0  0
   -1.8359   -1.0824    0.0000 N   0  0  0  0  0  0  0  0  0  0  0  0
   -0.9074   -0.6980    0.0000 O   0  0  0  0  0  0  0  0  0  0  0  0
   -0.9074    0.1270    0.0000 O   0  0  0  0  0  0  0  0  0  0  0  0
   -2.6328   -1.2960    0.0000 C   0  0  0  0  0  0  0  0  0  0  0  0
   -2.8463   -2.0929    0.0000 C   0  0  0  0  0  0  0  0  0  0  0  0
   -3.2162   -0.7126    0.0000 C   0  0  0  0  0  0  0  0  0  0  0  0
   -3.4297   -1.5095    0.0000 C   0  0  0  0  0  0  0  0  0  0  0  0
   -5.4628   -0.3305    0.0000 C   0  0  0  0  0  0  0  0  0  0  0  0
   -4.6378   -0.3305    0.0000 C   0  0  0  0  0  0  0  0  0  0  0  0
   -4.3829    0.4541    0.0000 N   0  0  0  0  0  0  0  0  0  0  0  0
   -5.0503    0.9390    0.0000 C   0  0  0  0  0  0  0  0  0  0  0  0
   -5.7178    0.4541    0.0000 C   0  0  0  0  0  0  0  0  0  0  0  0
   -5.0503    1.7640    0.0000 O   0  0  0  0  0  0  0  0  0  0  0  0
    4.3375   -1.3813    0.0000 C   0  0  0  0  0  0  0  0  0  0  0  0
  1  2  4  0  0  0  0
  2  3  4  0  0  0  0
  3  4  4  0  0  0  0
  4  5  4  0  0  0  0
  5  1  4  0  0  0  0
  3  6  1  0  0  0  0
  6  7  4  0  0  0  0
  7  8  4  0  0  0  0
  8  9  4  0  0  0  0
  9 10  4  0  0  0  0
 10 11  4  0  0  0  0
 11  6  4  0  0  0  0
  5 12  1  0  0  0  0
 12 13  4  0  0  0  0
 13 14  4  0  0  0  0
 14 15  4  0  0  0  0
 15 16  4  0  0  0  0
 16 17  4  0  0  0  0
 17 12  4  0  0  0  0
  9 35  1  0  0  0  0
 15 18  1  0  0  0  0
 18 19  1  0  0  0  0
 19 20  1  0  0  0  0
 19 21  2  0  0  0  0
 20 22  1  0  0  0  0
 22 23  1  0  0  0  0
 22 24  1  0  0  0  0
 11 25  1  0  0  0  0
 25 26  1  0  0  0  0
 25 27  2  0  0  0  0
 28 25  2  0  0  0  0
 26 29  1  0  0  0  0
 29 30  1  0  0  0  0
 29 31  1  0  0  0  0
 29 32  1  0  0  0  0
 33 34  1  0  0  0  0
 34 35  1  0  0  0  0
 35 36  1  0  0  0  0
 36 37  1  0  0  0  0
 37 33  1  0  0  0  0
 36 38  2  0  0  0  0
 20 39  1  0  0  0  0
M  END
> <From>
www.bindingDB.org

> <BindingDB Reactant_set_id>
1155200

> <Ligand InChI>
InChI=1S/C28H35N5O4S2/c1-18(2)32(6)27(35)30-20-11-9-19(10-12-20)26-29-17-23(38-26)22-14-13-21(33-15-7-8-25(33)34)16-24(22)39(36,37)31-28(3,4)5/h9-14,16-18,31H,7-8,15H2,1-6H3,(H,30,35)

> <Ligand InChI Key>
JQQUXGXMIPBNCJ-UHFFFAOYSA-N

> <BindingDB MonomerID>
546351

> <BindingDB Ligand Name>
US11291655, No A7

> <Target Name>
DNA repair protein RAD51 homolog 1

> <Target Source Organism According to Curator or DataSource>
Homo sapiens

> <Ki (nM)>


> <IC50 (nM)>


> <Kd (nM)>


> <EC50 (nM)>
<10000

> <kon (M-1-s-1)>


> <koff (s-1)>


> <pH>


> <Temp C>


> <Curation/DataSource>
US Patent

> <Article DOI>


> <BindingDB Entry DOI>
10.7270/Q2NG4TV0

> <PMID>


> <PubChem AID>
aid1806421

> <Patent Number>
US11291655

> <Authors>
Castro, AC; McComas, CC; Vacca, J

> <Date of publication>
4/5/2022

> <Date in BindingDB>
7/21/2022

> <Institution>
Cyteir Therapeutics, Inc.

> <Link to Ligand in BindingDB>
http://www.bindingdb.org/bind/chemsearch/marvin/MolStructure.jsp?monomerid=546351

> <Link to Ligand-Target Pair in BindingDB>
http://www.bindingdb.org/jsp/dbsearch/PrimarySearch_ki.jsp?energyterm=kJ/mole&tag=pol&polymerid=4676&target=DNA+repair+protein+RAD51+homolog+1&column=ki&startPg=0&Increment=50&submit=Search

> <Link to Ligand-Target Pair in BindingDB>
http://www.bindingdb.org/jsp/dbsearch/PrimarySearch_ki.jsp?energyterm=kJ/mole&tag=r21&monomerid=546351&enzyme=DNA+repair+protein+RAD51+homolog+1&column=ki&startPg=0&Increment=50&submit=Search

> <Ligand HET ID in PDB>


> <PDB ID(s) for Ligand-Target Complex>


> <PubChem CID of Ligand>
137411820

> <PubChem SID of Ligand>
469681047

> <ChEBI ID of Ligand>


> <ChEMBL ID of Ligand>


> <DrugBank ID of Ligand>


> <IUPHAR_GRAC ID of Ligand>


> <KEGG ID of Ligand>


> <ZINC ID of Ligand>


> <Number of Protein Chains in Target (bigger than 1 implies a multichain complex)>
1

> <BindingDB Target Chain Sequence>
MAMQMQLEANADTSVEEESFGPQPISRLEQCGINANDVKKLEEAGFHTVEAVAYAPKKELINIKGISEAKADKILAEAAKLVPMGFTTATEFHQRRSEIIQITTGSKELDKLLQGGIETGSITEMFGEFRTGKTQICHTLAVTCQLPIDRGGGEGKAMYIDTEGTFRPERLLAVAERYGLSGSDVLDNVAYARAFNTDHQTQLLYQASAMMVESRYALLIVDSATALYRTDYSGRGELSARQMHLARFLRMLLRLADEFGVAVVITNQVVAQVDGAAMFAADPKKPIGGNIIAHASTTRLYLRKGRGETRICKIYDSPCLPEAEAMFAINADGVGDAKD

> <PDB ID(s) of Target Chain>
1N0W,5JZC,5NP7,5NWL,8BQ2,8BR2,8BSC

> <UniProt (SwissProt) Recommended Name of Target Chain>
DNA repair protein RAD51 homolog 1

> <UniProt (SwissProt) Entry Name of Target Chain>
RAD51_HUMAN

> <UniProt (SwissProt) Primary ID of Target Chain>
Q06609

> <UniProt (SwissProt) Secondary ID(s) of Target Chain>
B0FXP0 B2R8T6 Q6FHX9 Q6ZNA8 Q9BV60

> <UniProt (SwissProt) Alternative ID(s) of Target Chain>


> <UniProt (TrEMBL) Submitted Name of Target Chain>


> <UniProt (TrEMBL) Entry Name of Target Chain>


> <UniProt (TrEMBL) Primary ID of Target Chain>


> <UniProt (TrEMBL) Secondary ID(s) of Target Chain>


> <UniProt (TrEMBL) Alternative ID(s) of Target Chain>


$$$$
00211001.cdx
  Mrv0541 07212217012D          

 39 41  0  0  0  0            999 V2000
    0.8891    2.0929    0.0000 N   0  0  0  0  0  0  0  0  0  0  0  0
    0.0641    2.0929    0.0000 C   0  0  0  0  0  0  0  0  0  0  0  0
   -0.1908    1.3082    0.0000 C   0  0  0  0  0  0  0  0  0  0  0  0
    0.4766    0.8233    0.0000 S   0  0  0  0  0  0  0  0  0  0  0  0
    1.1440    1.3082    0.0000 C   0  0  0  0  0  0  0  0  0  0  0  0
   -0.9877    1.0947    0.0000 C   0  0  0  0  0  0  0  0  0  0  0  0
   -1.5711    1.6781    0.0000 C   0  0  0  0  0  0  0  0  0  0  0  0
   -2.3680    1.4645    0.0000 C   0  0  0  0  0  0  0  0  0  0  0  0
   -2.5815    0.6677    0.0000 C   0  0  0  0  0  0  0  0  0  0  0  0
   -1.9981    0.0843    0.0000 C   0  0  0  0  0  0  0  0  0  0  0  0
   -1.2013    0.2978    0.0000 C   0  0  0  0  0  0  0  0  0  0  0  0
    1.9409    1.0947    0.0000 C   0  0  0  0  0  0  0  0  0  0  0  0
    2.1545    0.2978    0.0000 C   0  0  0  0  0  0  0  0  0  0  0  0
    2.9513    0.0843    0.0000 C   0  0  0  0  0  0  0  0  0  0  0  0
    3.5347    0.6677    0.0000 C   0  0  0  0  0  0  0  0  0  0  0  0
    3.3212    1.4645    0.0000 C   0  0  0  0  0  0  0  0  0  0  0  0
    2.5243    1.6781    0.0000 C   0  0  0  0  0  0  0  0  0  0  0  0
    4.3316    0.4541    0.0000 N   0  0  0  0  0  0  0  0  0  0  0  0
    4.5451   -0.3428    0.0000 C   0  0  0  0  0  0  0  0  0  0  0  0
    5.3420   -0.5563    0.0000 O   0  0  0  0  0  0  0  0  0  0  0  0
    3.9618   -0.9261    0.0000 O   0  0  0  0  0  0  0  0  0  0  0  0
    5.9254    0.0271    0.0000 C   0  0  0  0  0  0  0  0  0  0  0  0
    6.7223   -0.1865    0.0000 C   0  0  0  0  0  0  0  0  0  0  0  0
    5.7118    0.8240    0.0000 C   0  0  0  0  0  0  0  0  0  0  0  0
   -0.6179   -0.2855    0.0000 S   0  0  0  0  0  0  0  0  0  0  0  0
   -0.8314   -1.0824    0.0000 N   0  0  0  0  0  0  0  0  0  0  0  0
    0.0971   -0.6980    0.0000 O   0  0  0  0  0  0  0  0  0  0  0  0
    0.0971    0.1270    0.0000 O   0  0  0  0  0  0  0  0  0  0  0  0
   -1.6283   -1.2960    0.0000 C   0  0  0  0  0  0  0  0  0  0  0  0
   -1.8418   -2.0929    0.0000 C   0  0  0  0  0  0  0  0  0  0  0  0
   -2.2117   -0.7126    0.0000 C   0  0  0  0  0  0  0  0  0  0  0  0
   -2.4252   -1.5095    0.0000 C   0  0  0  0  0  0  0  0  0  0  0  0
   -3.3784    0.4541    0.0000 N   0  0  0  0  0  0  0  0  0  0  0  0
   -3.9618    1.0375    0.0000 C   0  0  0  0  0  0  0  0  0  0  0  0
   -4.7586    0.8240    0.0000 O   0  0  0  0  0  0  0  0  0  0  0  0
   -3.7482    1.8344    0.0000 O   0  0  0  0  0  0  0  0  0  0  0  0
   -5.3420    1.4073    0.0000 C   0  0  0  0  0  0  0  0  0  0  0  0
   -6.1389    1.1938    0.0000 C   0  0  0  0  0  0  0  0  0  0  0  0
   -6.7223    1.7772    0.0000 O   0  0  0  0  0  0  0  0  0  0  0  0
  1  2  4  0  0  0  0
  2  3  4  0  0  0  0
  3  4  4  0  0  0  0
  4  5  4  0  0  0  0
  5  1  4  0  0  0  0
  3  6  1  0  0  0  0
  6  7  4  0  0  0  0
  7  8  4  0  0  0  0
  8  9  4  0  0  0  0
  9 10  4  0  0  0  0
 10 11  4  0  0  0  0
 11  6  4  0  0  0  0
  5 12  1  0  0  0  0
 12 13  4  0  0  0  0
 13 14  4  0  0  0  0
 14 15  4  0  0  0  0
 15 16  4  0  0  0  0
 16 17  4  0  0  0  0
 17 12  4  0  0  0  0
  9 33  1  0  0  0  0
 15 18  1  0  0  0  0
 18 19  1  0  0  0  0
 19 20  1  0  0  0  0
 19 21  2  0  0  0  0
 20 22  1  0  0  0  0
 22 23  1  0  0  0  0
 22 24  1  0  0  0  0
 11 25  1  0  0  0  0
 25 26  1  0  0  0  0
 25 27  2  0  0  0  0
 28 25  2  0  0  0  0
 26 29  1  0  0  0  0
 29 30  1  0  0  0  0
 29 31  1  0  0  0  0
 29 32  1  0  0  0  0
 33 34  1  0  0  0  0
 34 35  1  0  0  0  0
 34 36  2  0  0  0  0
 35 37  1  0  0  0  0
 37 38  1  0  0  0  0
 38 39  1  0  0  0  0
M  END
> <From>
www.bindingDB.org

> <BindingDB Reactant_set_id>
1155201

> <Ligand InChI>
InChI=1S/C26H32N4O7S2/c1-16(2)37-25(33)28-18-8-6-17(7-9-18)23-27-15-21(38-23)20-11-10-19(29-24(32)36-13-12-31)14-22(20)39(34,35)30-26(3,4)5/h6-11,14-16,30-31H,12-13H2,1-5H3,(H,28,33)(H,29,32)

> <Ligand InChI Key>
ZJESPIQQXZCMGF-UHFFFAOYSA-N

> <BindingDB MonomerID>
546352

> <BindingDB Ligand Name>
US11291655, No B1

> <Target Name>
DNA repair protein RAD51 homolog 1

> <Target Source Organism According to Curator or DataSource>
Homo sapiens

> <Ki (nM)>


> <IC50 (nM)>


> <Kd (nM)>


> <EC50 (nM)>
<5000

> <kon (M-1-s-1)>


> <koff (s-1)>


> <pH>


> <Temp C>


> <Curation/DataSource>
US Patent

> <Article DOI>


> <BindingDB Entry DOI>
10.7270/Q2NG4TV0

> <PMID>


> <PubChem AID>
aid1806421

> <Patent Number>
US11291655

> <Authors>
Castro, AC; McComas, CC; Vacca, J

> <Date of publication>
4/5/2022

> <Date in BindingDB>
7/21/2022

> <Institution>
Cyteir Therapeutics, Inc.

> <Link to Ligand in BindingDB>
http://www.bindingdb.org/bind/chemsearch/marvin/MolStructure.jsp?monomerid=546352

> <Link to Ligand-Target Pair in BindingDB>
http://www.bindingdb.org/jsp/dbsearch/PrimarySearch_ki.jsp?energyterm=kJ/mole&tag=pol&polymerid=4676&target=DNA+repair+protein+RAD51+homolog+1&column=ki&startPg=0&Increment=50&submit=Search

> <Link to Ligand-Target Pair in BindingDB>
http://www.bindingdb.org/jsp/dbsearch/PrimarySearch_ki.jsp?energyterm=kJ/mole&tag=r21&monomerid=546352&enzyme=DNA+repair+protein+RAD51+homolog+1&column=ki&startPg=0&Increment=50&submit=Search

> <Ligand HET ID in PDB>


> <PDB ID(s) for Ligand-Target Complex>


> <PubChem CID of Ligand>
137411770

> <PubChem SID of Ligand>
469681048

> <ChEBI ID of Ligand>


> <ChEMBL ID of Ligand>


> <DrugBank ID of Ligand>


> <IUPHAR_GRAC ID of Ligand>


> <KEGG ID of Ligand>


> <ZINC ID of Ligand>


> <Number of Protein Chains in Target (bigger than 1 implies a multichain complex)>
1

> <BindingDB Target Chain Sequence>
MAMQMQLEANADTSVEEESFGPQPISRLEQCGINANDVKKLEEAGFHTVEAVAYAPKKELINIKGISEAKADKILAEAAKLVPMGFTTATEFHQRRSEIIQITTGSKELDKLLQGGIETGSITEMFGEFRTGKTQICHTLAVTCQLPIDRGGGEGKAMYIDTEGTFRPERLLAVAERYGLSGSDVLDNVAYARAFNTDHQTQLLYQASAMMVESRYALLIVDSATALYRTDYSGRGELSARQMHLARFLRMLLRLADEFGVAVVITNQVVAQVDGAAMFAADPKKPIGGNIIAHASTTRLYLRKGRGETRICKIYDSPCLPEAEAMFAINADGVGDAKD

> <PDB ID(s) of Target Chain>
1N0W,5JZC,5NP7,5NWL,8BQ2,8BR2,8BSC

> <UniProt (SwissProt) Recommended Name of Target Chain>
DNA repair protein RAD51 homolog 1

> <UniProt (SwissProt) Entry Name of Target Chain>
RAD51_HUMAN

> <UniProt (SwissProt) Primary ID of Target Chain>
Q06609

> <UniProt (SwissProt) Secondary ID(s) of Target Chain>
B0FXP0 B2R8T6 Q6FHX9 Q6ZNA8 Q9BV60

> <UniProt (SwissProt) Alternative ID(s) of Target Chain>


> <UniProt (TrEMBL) Submitted Name of Target Chain>


> <UniProt (TrEMBL) Entry Name of Target Chain>


> <UniProt (TrEMBL) Primary ID of Target Chain>


> <UniProt (TrEMBL) Secondary ID(s) of Target Chain>


> <UniProt (TrEMBL) Alternative ID(s) of Target Chain>


$$$$
00212001.cdx
  Mrv0541 07212217012D          

 43 46  0  0  0  0            999 V2000
    1.3943    2.0929    0.0000 N   0  0  0  0  0  0  0  0  0  0  0  0
    0.5693    2.0929    0.0000 C   0  0  0  0  0  0  0  0  0  0  0  0
    0.3144    1.3082    0.0000 C   0  0  0  0  0  0  0  0  0  0  0  0
    0.9818    0.8233    0.0000 S   0  0  0  0  0  0  0  0  0  0  0  0
    1.6492    1.3082    0.0000 C   0  0  0  0  0  0  0  0  0  0  0  0
   -0.4825    1.0947    0.0000 C   0  0  0  0  0  0  0  0  0  0  0  0
   -1.0659    1.6781    0.0000 C   0  0  0  0  0  0  0  0  0  0  0  0
   -1.8628    1.4645    0.0000 C   0  0  0  0  0  0  0  0  0  0  0  0
   -2.0763    0.6677    0.0000 C   0  0  0  0  0  0  0  0  0  0  0  0
   -1.4929    0.0843    0.0000 C   0  0  0  0  0  0  0  0  0  0  0  0
   -0.6960    0.2978    0.0000 C   0  0  0  0  0  0  0  0  0  0  0  0
    2.4461    1.0947    0.0000 C   0  0  0  0  0  0  0  0  0  0  0  0
    2.6597    0.2978    0.0000 C   0  0  0  0  0  0  0  0  0  0  0  0
    3.4565    0.0843    0.0000 C   0  0  0  0  0  0  0  0  0  0  0  0
    4.0399    0.6677    0.0000 C   0  0  0  0  0  0  0  0  0  0  0  0
    3.8264    1.4645    0.0000 C   0  0  0  0  0  0  0  0  0  0  0  0
    3.0295    1.6781    0.0000 C   0  0  0  0  0  0  0  0  0  0  0  0
    4.8368    0.4541    0.0000 N   0  0  0  0  0  0  0  0  0  0  0  0
    5.0503   -0.3428    0.0000 C   0  0  0  0  0  0  0  0  0  0  0  0
    5.8472   -0.5563    0.0000 O   0  0  0  0  0  0  0  0  0  0  0  0
    4.4670   -0.9261    0.0000 O   0  0  0  0  0  0  0  0  0  0  0  0
    6.4306    0.0271    0.0000 C   0  0  0  0  0  0  0  0  0  0  0  0
    7.2275   -0.1865    0.0000 C   0  0  0  0  0  0  0  0  0  0  0  0
    6.2171    0.8240    0.0000 C   0  0  0  0  0  0  0  0  0  0  0  0
   -0.1127   -0.2855    0.0000 S   0  0  0  0  0  0  0  0  0  0  0  0
   -0.3262   -1.0824    0.0000 N   0  0  0  0  0  0  0  0  0  0  0  0
    0.6024   -0.6980    0.0000 O   0  0  0  0  0  0  0  0  0  0  0  0
    0.6024    0.1270    0.0000 O   0  0  0  0  0  0  0  0  0  0  0  0
   -1.1231   -1.2960    0.0000 C   0  0  0  0  0  0  0  0  0  0  0  0
   -1.3366   -2.0929    0.0000 C   0  0  0  0  0  0  0  0  0  0  0  0
   -1.7065   -0.7126    0.0000 C   0  0  0  0  0  0  0  0  0  0  0  0
   -1.9200   -1.5095    0.0000 C   0  0  0  0  0  0  0  0  0  0  0  0
   -2.8732    0.4541    0.0000 N   0  0  0  0  0  0  0  0  0  0  0  0
   -3.4565    1.0375    0.0000 C   0  0  0  0  0  0  0  0  0  0  0  0
   -4.2534    0.8240    0.0000 O   0  0  0  0  0  0  0  0  0  0  0  0
   -3.2430    1.8344    0.0000 O   0  0  0  0  0  0  0  0  0  0  0  0
   -4.8368    1.4073    0.0000 C   0  0  0  0  0  0  0  0  0  0  0  0
   -5.6337    1.1938    0.0000 C   0  0  0  0  0  0  0  0  0  0  0  0
   -6.2171    1.7772    0.0000 C   0  0  0  0  0  0  0  0  0  0  0  0
   -7.0139    1.5636    0.0000 C   0  0  0  0  0  0  0  0  0  0  0  0
   -7.2275    0.7668    0.0000 C   0  0  0  0  0  0  0  0  0  0  0  0
   -6.6441    0.1834    0.0000 C   0  0  0  0  0  0  0  0  0  0  0  0
   -5.8472    0.3969    0.0000 C   0  0  0  0  0  0  0  0  0  0  0  0
  1  2  4  0  0  0  0
  2  3  4  0  0  0  0
  3  4  4  0  0  0  0
  4  5  4  0  0  0  0
  5  1  4  0  0  0  0
  3  6  1  0  0  0  0
  6  7  4  0  0  0  0
  7  8  4  0  0  0  0
  8  9  4  0  0  0  0
  9 10  4  0  0  0  0
 10 11  4  0  0  0  0
 11  6  4  0  0  0  0
  5 12  1  0  0  0  0
 12 13  4  0  0  0  0
 13 14  4  0  0  0  0
 14 15  4  0  0  0  0
 15 16  4  0  0  0  0
 16 17  4  0  0  0  0
 17 12  4  0  0  0  0
  9 33  1  0  0  0  0
 15 18  1  0  0  0  0
 18 19  1  0  0  0  0
 19 20  1  0  0  0  0
 19 21  2  0  0  0  0
 20 22  1  0  0  0  0
 22 23  1  0  0  0  0
 22 24  1  0  0  0  0
 11 25  1  0  0  0  0
 25 26  1  0  0  0  0
 25 27  2  0  0  0  0
 28 25  2  0  0  0  0
 26 29  1  0  0  0  0
 29 30  1  0  0  0  0
 29 31  1  0  0  0  0
 29 32  1  0  0  0  0
 33 34  1  0  0  0  0
 34 35  1  0  0  0  0
 34 36  2  0  0  0  0
 35 37  1  0  0  0  0
 37 38  1  0  0  0  0
 38 39  1  0  0  0  0
 39 40  1  0  0  0  0
 40 41  1  0  0  0  0
 41 42  1  0  0  0  0
 42 43  1  0  0  0  0
 43 38  1  0  0  0  0
M  END
> <From>
www.bindingDB.org

> <BindingDB Reactant_set_id>
1155202

> <Ligand InChI>
InChI=1S/C31H40N4O6S2/c1-20(2)41-30(37)33-23-13-11-22(12-14-23)28-32-18-26(42-28)25-16-15-24(17-27(25)43(38,39)35-31(3,4)5)34-29(36)40-19-21-9-7-6-8-10-21/h11-18,20-21,35H,6-10,19H2,1-5H3,(H,33,37)(H,34,36)

> <Ligand InChI Key>
YFSGYCLLDTYDBB-UHFFFAOYSA-N

> <BindingDB MonomerID>
546353

> <BindingDB Ligand Name>
US11291655, No B10

> <Target Name>
DNA repair protein RAD51 homolog 1

> <Target Source Organism According to Curator or DataSource>
Homo sapiens

> <Ki (nM)>


> <IC50 (nM)>


> <Kd (nM)>


> <EC50 (nM)>
<1000

> <kon (M-1-s-1)>


> <koff (s-1)>


> <pH>


> <Temp C>


> <Curation/DataSource>
US Patent

> <Article DOI>


> <BindingDB Entry DOI>
10.7270/Q2NG4TV0

> <PMID>


> <PubChem AID>
aid1806421

> <Patent Number>
US11291655

> <Authors>
Castro, AC; McComas, CC; Vacca, J

> <Date of publication>
4/5/2022

> <Date in BindingDB>
7/21/2022

> <Institution>
Cyteir Therapeutics, Inc.

> <Link to Ligand in BindingDB>
http://www.bindingdb.org/bind/chemsearch/marvin/MolStructure.jsp?monomerid=546353

> <Link to Ligand-Target Pair in BindingDB>
http://www.bindingdb.org/jsp/dbsearch/PrimarySearch_ki.jsp?energyterm=kJ/mole&tag=pol&polymerid=4676&target=DNA+repair+protein+RAD51+homolog+1&column=ki&startPg=0&Increment=50&submit=Search

> <Link to Ligand-Target Pair in BindingDB>
http://www.bindingdb.org/jsp/dbsearch/PrimarySearch_ki.jsp?energyterm=kJ/mole&tag=r21&monomerid=546353&enzyme=DNA+repair+protein+RAD51+homolog+1&column=ki&startPg=0&Increment=50&submit=Search

> <Ligand HET ID in PDB>


> <PDB ID(s) for Ligand-Target Complex>


> <PubChem CID of Ligand>
137411790

> <PubChem SID of Ligand>
469681049

> <ChEBI ID of Ligand>


> <ChEMBL ID of Ligand>


> <DrugBank ID of Ligand>


> <IUPHAR_GRAC ID of Ligand>


> <KEGG ID of Ligand>


> <ZINC ID of Ligand>


> <Number of Protein Chains in Target (bigger than 1 implies a multichain complex)>
1

> <BindingDB Target Chain Sequence>
MAMQMQLEANADTSVEEESFGPQPISRLEQCGINANDVKKLEEAGFHTVEAVAYAPKKELINIKGISEAKADKILAEAAKLVPMGFTTATEFHQRRSEIIQITTGSKELDKLLQGGIETGSITEMFGEFRTGKTQICHTLAVTCQLPIDRGGGEGKAMYIDTEGTFRPERLLAVAERYGLSGSDVLDNVAYARAFNTDHQTQLLYQASAMMVESRYALLIVDSATALYRTDYSGRGELSARQMHLARFLRMLLRLADEFGVAVVITNQVVAQVDGAAMFAADPKKPIGGNIIAHASTTRLYLRKGRGETRICKIYDSPCLPEAEAMFAINADGVGDAKD

> <PDB ID(s) of Target Chain>
1N0W,5JZC,5NP7,5NWL,8BQ2,8BR2,8BSC

> <UniProt (SwissProt) Recommended Name of Target Chain>
DNA repair protein RAD51 homolog 1

> <UniProt (SwissProt) Entry Name of Target Chain>
RAD51_HUMAN

> <UniProt (SwissProt) Primary ID of Target Chain>
Q06609

> <UniProt (SwissProt) Secondary ID(s) of Target Chain>
B0FXP0 B2R8T6 Q6FHX9 Q6ZNA8 Q9BV60

> <UniProt (SwissProt) Alternative ID(s) of Target Chain>


> <UniProt (TrEMBL) Submitted Name of Target Chain>


> <UniProt (TrEMBL) Entry Name of Target Chain>


> <UniProt (TrEMBL) Primary ID of Target Chain>


> <UniProt (TrEMBL) Secondary ID(s) of Target Chain>


> <UniProt (TrEMBL) Alternative ID(s) of Target Chain>


$$$$
00213001.cdx
  Mrv0541 07212217012D          

 42 45  0  0  0  0            999 V2000
    1.2649    2.0929    0.0000 N   0  0  0  0  0  0  0  0  0  0  0  0
    0.4399    2.0929    0.0000 C   0  0  0  0  0  0  0  0  0  0  0  0
    0.1849    1.3082    0.0000 C   0  0  0  0  0  0  0  0  0  0  0  0
    0.8524    0.8233    0.0000 S   0  0  0  0  0  0  0  0  0  0  0  0
    1.5198    1.3082    0.0000 C   0  0  0  0  0  0  0  0  0  0  0  0
   -0.6120    1.0947    0.0000 C   0  0  0  0  0  0  0  0  0  0  0  0
   -1.1953    1.6781    0.0000 C   0  0  0  0  0  0  0  0  0  0  0  0
   -1.9922    1.4645    0.0000 C   0  0  0  0  0  0  0  0  0  0  0  0
   -2.2057    0.6677    0.0000 C   0  0  0  0  0  0  0  0  0  0  0  0
   -1.6224    0.0843    0.0000 C   0  0  0  0  0  0  0  0  0  0  0  0
   -0.8255    0.2978    0.0000 C   0  0  0  0  0  0  0  0  0  0  0  0
    2.3167    1.0947    0.0000 C   0  0  0  0  0  0  0  0  0  0  0  0
    2.5302    0.2978    0.0000 C   0  0  0  0  0  0  0  0  0  0  0  0
    3.3271    0.0843    0.0000 C   0  0  0  0  0  0  0  0  0  0  0  0
    3.9105    0.6677    0.0000 C   0  0  0  0  0  0  0  0  0  0  0  0
    3.6969    1.4645    0.0000 C   0  0  0  0  0  0  0  0  0  0  0  0
    2.9000    1.6781    0.0000 C   0  0  0  0  0  0  0  0  0  0  0  0
    4.7074    0.4541    0.0000 N   0  0  0  0  0  0  0  0  0  0  0  0
    4.9209   -0.3428    0.0000 C   0  0  0  0  0  0  0  0  0  0  0  0
    5.7178   -0.5563    0.0000 O   0  0  0  0  0  0  0  0  0  0  0  0
    4.3375   -0.9261    0.0000 O   0  0  0  0  0  0  0  0  0  0  0  0
    6.3011    0.0271    0.0000 C   0  0  0  0  0  0  0  0  0  0  0  0
    7.0980   -0.1865    0.0000 C   0  0  0  0  0  0  0  0  0  0  0  0
    6.0876    0.8240    0.0000 C   0  0  0  0  0  0  0  0  0  0  0  0
   -0.2421   -0.2855    0.0000 S   0  0  0  0  0  0  0  0  0  0  0  0
   -0.4557   -1.0824    0.0000 N   0  0  0  0  0  0  0  0  0  0  0  0
    0.4729   -0.6980    0.0000 O   0  0  0  0  0  0  0  0  0  0  0  0
    0.4729    0.1270    0.0000 O   0  0  0  0  0  0  0  0  0  0  0  0
   -1.2525   -1.2960    0.0000 C   0  0  0  0  0  0  0  0  0  0  0  0
   -1.4661   -2.0929    0.0000 C   0  0  0  0  0  0  0  0  0  0  0  0
   -1.8359   -0.7126    0.0000 C   0  0  0  0  0  0  0  0  0  0  0  0
   -2.0494   -1.5095    0.0000 C   0  0  0  0  0  0  0  0  0  0  0  0
   -3.0026    0.4541    0.0000 N   0  0  0  0  0  0  0  0  0  0  0  0
   -3.5860    1.0375    0.0000 C   0  0  0  0  0  0  0  0  0  0  0  0
   -4.3829    0.8240    0.0000 O   0  0  0  0  0  0  0  0  0  0  0  0
   -3.3725    1.8344    0.0000 O   0  0  0  0  0  0  0  0  0  0  0  0
   -4.9663    1.4073    0.0000 C   0  0  0  0  0  0  0  0  0  0  0  0
   -6.8431    0.4092    0.0000 C   0  0  0  0  0  0  0  0  0  0  0  0
   -6.0181    0.4092    0.0000 S   0  0  0  0  0  0  0  0  0  0  0  0
   -5.7631    1.1938    0.0000 C   0  0  0  0  0  0  0  0  0  0  0  0
   -6.4306    1.6787    0.0000 N   0  0  0  0  0  0  0  0  0  0  0  0
   -7.0980    1.1938    0.0000 C   0  0  0  0  0  0  0  0  0  0  0  0
  1  2  4  0  0  0  0
  2  3  4  0  0  0  0
  3  4  4  0  0  0  0
  4  5  4  0  0  0  0
  5  1  4  0  0  0  0
  3  6  1  0  0  0  0
  6  7  4  0  0  0  0
  7  8  4  0  0  0  0
  8  9  4  0  0  0  0
  9 10  4  0  0  0  0
 10 11  4  0  0  0  0
 11  6  4  0  0  0  0
  5 12  1  0  0  0  0
 12 13  4  0  0  0  0
 13 14  4  0  0  0  0
 14 15  4  0  0  0  0
 15 16  4  0  0  0  0
 16 17  4  0  0  0  0
 17 12  4  0  0  0  0
  9 33  1  0  0  0  0
 15 18  1  0  0  0  0
 18 19  1  0  0  0  0
 19 20  1  0  0  0  0
 19 21  2  0  0  0  0
 20 22  1  0  0  0  0
 22 23  1  0  0  0  0
 22 24  1  0  0  0  0
 11 25  1  0  0  0  0
 25 26  1  0  0  0  0
 25 27  2  0  0  0  0
 28 25  2  0  0  0  0
 26 29  1  0  0  0  0
 29 30  1  0  0  0  0
 29 31  1  0  0  0  0
 29 32  1  0  0  0  0
 33 34  1  0  0  0  0
 34 35  1  0  0  0  0
 34 36  2  0  0  0  0
 35 37  1  0  0  0  0
 37 40  1  0  0  0  0
 38 39  4  0  0  0  0
 39 40  4  0  0  0  0
 40 41  4  0  0  0  0
 41 42  4  0  0  0  0
 42 38  4  0  0  0  0
M  END
> <From>
www.bindingDB.org

> <BindingDB Reactant_set_id>
1155203

> <Ligand InChI>
InChI=1S/C28H31N5O6S3/c1-17(2)39-27(35)31-19-8-6-18(7-9-19)25-30-15-22(41-25)21-11-10-20(14-23(21)42(36,37)33-28(3,4)5)32-26(34)38-16-24-29-12-13-40-24/h6-15,17,33H,16H2,1-5H3,(H,31,35)(H,32,34)

> <Ligand InChI Key>
PFHNKKDPFSVKCK-UHFFFAOYSA-N

> <BindingDB MonomerID>
546354

> <BindingDB Ligand Name>
US11291655, No B11

> <Target Name>
DNA repair protein RAD51 homolog 1

> <Target Source Organism According to Curator or DataSource>
Homo sapiens

> <Ki (nM)>


> <IC50 (nM)>


> <Kd (nM)>


> <EC50 (nM)>
<1000

> <kon (M-1-s-1)>


> <koff (s-1)>


> <pH>


> <Temp C>


> <Curation/DataSource>
US Patent

> <Article DOI>


> <BindingDB Entry DOI>
10.7270/Q2NG4TV0

> <PMID>


> <PubChem AID>
aid1806421

> <Patent Number>
US11291655

> <Authors>
Castro, AC; McComas, CC; Vacca, J

> <Date of publication>
4/5/2022

> <Date in BindingDB>
7/21/2022

> <Institution>
Cyteir Therapeutics, Inc.

> <Link to Ligand in BindingDB>
http://www.bindingdb.org/bind/chemsearch/marvin/MolStructure.jsp?monomerid=546354

> <Link to Ligand-Target Pair in BindingDB>
http://www.bindingdb.org/jsp/dbsearch/PrimarySearch_ki.jsp?energyterm=kJ/mole&tag=pol&polymerid=4676&target=DNA+repair+protein+RAD51+homolog+1&column=ki&startPg=0&Increment=50&submit=Search

> <Link to Ligand-Target Pair in BindingDB>
http://www.bindingdb.org/jsp/dbsearch/PrimarySearch_ki.jsp?energyterm=kJ/mole&tag=r21&monomerid=546354&enzyme=DNA+repair+protein+RAD51+homolog+1&column=ki&startPg=0&Increment=50&submit=Search

> <Ligand HET ID in PDB>


> <PDB ID(s) for Ligand-Target Complex>


> <PubChem CID of Ligand>
137411743

> <PubChem SID of Ligand>
469681050

> <ChEBI ID of Ligand>


> <ChEMBL ID of Ligand>


> <DrugBank ID of Ligand>


> <IUPHAR_GRAC ID of Ligand>


> <KEGG ID of Ligand>


> <ZINC ID of Ligand>


> <Number of Protein Chains in Target (bigger than 1 implies a multichain complex)>
1

> <BindingDB Target Chain Sequence>
MAMQMQLEANADTSVEEESFGPQPISRLEQCGINANDVKKLEEAGFHTVEAVAYAPKKELINIKGISEAKADKILAEAAKLVPMGFTTATEFHQRRSEIIQITTGSKELDKLLQGGIETGSITEMFGEFRTGKTQICHTLAVTCQLPIDRGGGEGKAMYIDTEGTFRPERLLAVAERYGLSGSDVLDNVAYARAFNTDHQTQLLYQASAMMVESRYALLIVDSATALYRTDYSGRGELSARQMHLARFLRMLLRLADEFGVAVVITNQVVAQVDGAAMFAADPKKPIGGNIIAHASTTRLYLRKGRGETRICKIYDSPCLPEAEAMFAINADGVGDAKD

> <PDB ID(s) of Target Chain>
1N0W,5JZC,5NP7,5NWL,8BQ2,8BR2,8BSC

> <UniProt (SwissProt) Recommended Name of Target Chain>
DNA repair protein RAD51 homolog 1

> <UniProt (SwissProt) Entry Name of Target Chain>
RAD51_HUMAN

> <UniProt (SwissProt) Primary ID of Target Chain>
Q06609

> <UniProt (SwissProt) Secondary ID(s) of Target Chain>
B0FXP0 B2R8T6 Q6FHX9 Q6ZNA8 Q9BV60

> <UniProt (SwissProt) Alternative ID(s) of Target Chain>


> <UniProt (TrEMBL) Submitted Name of Target Chain>


> <UniProt (TrEMBL) Entry Name of Target Chain>


> <UniProt (TrEMBL) Primary ID of Target Chain>


> <UniProt (TrEMBL) Secondary ID(s) of Target Chain>


> <UniProt (TrEMBL) Alternative ID(s) of Target Chain>


$$$$
00214001.cdx
  Mrv0541 07212217012D          

 40 42  0  0  0  0            999 V2000
    1.2875    2.0929    0.0000 N   0  0  0  0  0  0  0  0  0  0  0  0
    0.4625    2.0929    0.0000 C   0  0  0  0  0  0  0  0  0  0  0  0
    0.2076    1.3082    0.0000 C   0  0  0  0  0  0  0  0  0  0  0  0
    0.8750    0.8233    0.0000 S   0  0  0  0  0  0  0  0  0  0  0  0
    1.5425    1.3082    0.0000 C   0  0  0  0  0  0  0  0  0  0  0  0
   -0.5893    1.0947    0.0000 C   0  0  0  0  0  0  0  0  0  0  0  0
   -1.1726    1.6781    0.0000 C   0  0  0  0  0  0  0  0  0  0  0  0
   -1.9695    1.4645    0.0000 C   0  0  0  0  0  0  0  0  0  0  0  0
   -2.1831    0.6677    0.0000 C   0  0  0  0  0  0  0  0  0  0  0  0
   -1.5997    0.0843    0.0000 C   0  0  0  0  0  0  0  0  0  0  0  0
   -0.8028    0.2978    0.0000 C   0  0  0  0  0  0  0  0  0  0  0  0
    2.3394    1.0947    0.0000 C   0  0  0  0  0  0  0  0  0  0  0  0
    2.5529    0.2978    0.0000 C   0  0  0  0  0  0  0  0  0  0  0  0
    3.3498    0.0843    0.0000 C   0  0  0  0  0  0  0  0  0  0  0  0
    3.9331    0.6677    0.0000 C   0  0  0  0  0  0  0  0  0  0  0  0
    3.7196    1.4645    0.0000 C   0  0  0  0  0  0  0  0  0  0  0  0
    2.9227    1.6781    0.0000 C   0  0  0  0  0  0  0  0  0  0  0  0
    4.7300    0.4541    0.0000 N   0  0  0  0  0  0  0  0  0  0  0  0
    4.9436   -0.3428    0.0000 C   0  0  0  0  0  0  0  0  0  0  0  0
    5.7405   -0.5563    0.0000 O   0  0  0  0  0  0  0  0  0  0  0  0
    4.3602   -0.9261    0.0000 O   0  0  0  0  0  0  0  0  0  0  0  0
    6.3238    0.0271    0.0000 C   0  0  0  0  0  0  0  0  0  0  0  0
    7.1207   -0.1865    0.0000 C   0  0  0  0  0  0  0  0  0  0  0  0
    6.1103    0.8240    0.0000 C   0  0  0  0  0  0  0  0  0  0  0  0
   -0.2194   -0.2855    0.0000 S   0  0  0  0  0  0  0  0  0  0  0  0
   -0.4330   -1.0824    0.0000 N   0  0  0  0  0  0  0  0  0  0  0  0
    0.4956   -0.6980    0.0000 O   0  0  0  0  0  0  0  0  0  0  0  0
    0.4956    0.1270    0.0000 O   0  0  0  0  0  0  0  0  0  0  0  0
   -1.2299   -1.2960    0.0000 C   0  0  0  0  0  0  0  0  0  0  0  0
   -1.4434   -2.0929    0.0000 C   0  0  0  0  0  0  0  0  0  0  0  0
   -1.8132   -0.7126    0.0000 C   0  0  0  0  0  0  0  0  0  0  0  0
   -2.0267   -1.5095    0.0000 C   0  0  0  0  0  0  0  0  0  0  0  0
   -2.9800    0.4541    0.0000 N   0  0  0  0  0  0  0  0  0  0  0  0
   -3.5633    1.0375    0.0000 C   0  0  0  0  0  0  0  0  0  0  0  0
   -4.3602    0.8240    0.0000 O   0  0  0  0  0  0  0  0  0  0  0  0
   -3.3498    1.8344    0.0000 O   0  0  0  0  0  0  0  0  0  0  0  0
   -4.9436    1.4073    0.0000 C   0  0  0  0  0  0  0  0  0  0  0  0
   -5.7405    1.1938    0.0000 C   0  0  0  0  0  0  0  0  0  0  0  0
   -6.3238    1.7772    0.0000 C   0  0  0  0  0  0  0  0  0  0  0  0
   -7.1207    1.5636    0.0000 C   0  0  0  0  0  0  0  0  0  0  0  0
  1  2  4  0  0  0  0
  2  3  4  0  0  0  0
  3  4  4  0  0  0  0
  4  5  4  0  0  0  0
  5  1  4  0  0  0  0
  3  6  1  0  0  0  0
  6  7  4  0  0  0  0
  7  8  4  0  0  0  0
  8  9  4  0  0  0  0
  9 10  4  0  0  0  0
 10 11  4  0  0  0  0
 11  6  4  0  0  0  0
  5 12  1  0  0  0  0
 12 13  4  0  0  0  0
 13 14  4  0  0  0  0
 14 15  4  0  0  0  0
 15 16  4  0  0  0  0
 16 17  4  0  0  0  0
 17 12  4  0  0  0  0
  9 33  1  0  0  0  0
 15 18  1  0  0  0  0
 18 19  1  0  0  0  0
 19 20  1  0  0  0  0
 19 21  2  0  0  0  0
 20 22  1  0  0  0  0
 22 23  1  0  0  0  0
 22 24  1  0  0  0  0
 11 25  1  0  0  0  0
 25 26  1  0  0  0  0
 25 27  2  0  0  0  0
 28 25  2  0  0  0  0
 26 29  1  0  0  0  0
 29 30  1  0  0  0  0
 29 31  1  0  0  0  0
 29 32  1  0  0  0  0
 33 34  1  0  0  0  0
 34 35  1  0  0  0  0
 34 36  2  0  0  0  0
 35 37  1  0  0  0  0
 37 38  1  0  0  0  0
 38 39  2  0  0  0  0
 39 40  1  0  0  0  0
M  END
> <From>
www.bindingDB.org

> <BindingDB Reactant_set_id>
1155204

> <Ligand InChI>
InChI=1S/C28H34N4O6S2/c1-7-8-15-37-26(33)31-21-13-14-22(24(16-21)40(35,36)32-28(4,5)6)23-17-29-25(39-23)19-9-11-20(12-10-19)30-27(34)38-18(2)3/h7-14,16-18,32H,15H2,1-6H3,(H,30,34)(H,31,33)/b8-7+

> <Ligand InChI Key>
WWMMDPACYNCXJO-BQYQJAHWSA-N

> <BindingDB MonomerID>
546355

> <BindingDB Ligand Name>
US11291655, No B12

> <Target Name>
DNA repair protein RAD51 homolog 1

> <Target Source Organism According to Curator or DataSource>
Homo sapiens

> <Ki (nM)>


> <IC50 (nM)>


> <Kd (nM)>


> <EC50 (nM)>
<1000

> <kon (M-1-s-1)>


> <koff (s-1)>


> <pH>


> <Temp C>


> <Curation/DataSource>
US Patent

> <Article DOI>


> <BindingDB Entry DOI>
10.7270/Q2NG4TV0

> <PMID>


> <PubChem AID>
aid1806421

> <Patent Number>
US11291655

> <Authors>
Castro, AC; McComas, CC; Vacca, J

> <Date of publication>
4/5/2022

> <Date in BindingDB>
7/21/2022

> <Institution>
Cyteir Therapeutics, Inc.

> <Link to Ligand in BindingDB>
http://www.bindingdb.org/bind/chemsearch/marvin/MolStructure.jsp?monomerid=546355

> <Link to Ligand-Target Pair in BindingDB>
http://www.bindingdb.org/jsp/dbsearch/PrimarySearch_ki.jsp?energyterm=kJ/mole&tag=pol&polymerid=4676&target=DNA+repair+protein+RAD51+homolog+1&column=ki&startPg=0&Increment=50&submit=Search

> <Link to Ligand-Target Pair in BindingDB>
http://www.bindingdb.org/jsp/dbsearch/PrimarySearch_ki.jsp?energyterm=kJ/mole&tag=r21&monomerid=546355&enzyme=DNA+repair+protein+RAD51+homolog+1&column=ki&startPg=0&Increment=50&submit=Search

> <Ligand HET ID in PDB>


> <PDB ID(s) for Ligand-Target Complex>


> <PubChem CID of Ligand>
137411998

> <PubChem SID of Ligand>
469681051

> <ChEBI ID of Ligand>


> <ChEMBL ID of Ligand>


> <DrugBank ID of Ligand>


> <IUPHAR_GRAC ID of Ligand>


> <KEGG ID of Ligand>


> <ZINC ID of Ligand>


> <Number of Protein Chains in Target (bigger than 1 implies a multichain complex)>
1

> <BindingDB Target Chain Sequence>
MAMQMQLEANADTSVEEESFGPQPISRLEQCGINANDVKKLEEAGFHTVEAVAYAPKKELINIKGISEAKADKILAEAAKLVPMGFTTATEFHQRRSEIIQITTGSKELDKLLQGGIETGSITEMFGEFRTGKTQICHTLAVTCQLPIDRGGGEGKAMYIDTEGTFRPERLLAVAERYGLSGSDVLDNVAYARAFNTDHQTQLLYQASAMMVESRYALLIVDSATALYRTDYSGRGELSARQMHLARFLRMLLRLADEFGVAVVITNQVVAQVDGAAMFAADPKKPIGGNIIAHASTTRLYLRKGRGETRICKIYDSPCLPEAEAMFAINADGVGDAKD

> <PDB ID(s) of Target Chain>
1N0W,5JZC,5NP7,5NWL,8BQ2,8BR2,8BSC

> <UniProt (SwissProt) Recommended Name of Target Chain>
DNA repair protein RAD51 homolog 1

> <UniProt (SwissProt) Entry Name of Target Chain>
RAD51_HUMAN

> <UniProt (SwissProt) Primary ID of Target Chain>
Q06609

> <UniProt (SwissProt) Secondary ID(s) of Target Chain>
B0FXP0 B2R8T6 Q6FHX9 Q6ZNA8 Q9BV60

> <UniProt (SwissProt) Alternative ID(s) of Target Chain>


> <UniProt (TrEMBL) Submitted Name of Target Chain>


> <UniProt (TrEMBL) Entry Name of Target Chain>


> <UniProt (TrEMBL) Primary ID of Target Chain>


> <UniProt (TrEMBL) Secondary ID(s) of Target Chain>


> <UniProt (TrEMBL) Alternative ID(s) of Target Chain>


$$$$
00215001.cdx
  Mrv0541 07212217012D          

 39 41  0  0  0  0            999 V2000
    0.8891    0.6927    0.0000 N   0  0  0  0  0  0  0  0  0  0  0  0
    0.0641    0.6927    0.0000 C   0  0  0  0  0  0  0  0  0  0  0  0
   -0.1908   -0.0919    0.0000 C   0  0  0  0  0  0  0  0  0  0  0  0
    0.4766   -0.5769    0.0000 S   0  0  0  0  0  0  0  0  0  0  0  0
    1.1440   -0.0919    0.0000 C   0  0  0  0  0  0  0  0  0  0  0  0
   -0.9877   -0.3055    0.0000 C   0  0  0  0  0  0  0  0  0  0  0  0
   -1.5711    0.2779    0.0000 C   0  0  0  0  0  0  0  0  0  0  0  0
   -2.3680    0.0644    0.0000 C   0  0  0  0  0  0  0  0  0  0  0  0
   -2.5815   -0.7325    0.0000 C   0  0  0  0  0  0  0  0  0  0  0  0
   -1.9981   -1.3159    0.0000 C   0  0  0  0  0  0  0  0  0  0  0  0
   -1.2013   -1.1024    0.0000 C   0  0  0  0  0  0  0  0  0  0  0  0
    1.9409   -0.3055    0.0000 C   0  0  0  0  0  0  0  0  0  0  0  0
    2.1545   -1.1024    0.0000 C   0  0  0  0  0  0  0  0  0  0  0  0
    2.9513   -1.3159    0.0000 C   0  0  0  0  0  0  0  0  0  0  0  0
    3.5347   -0.7325    0.0000 C   0  0  0  0  0  0  0  0  0  0  0  0
    3.3212    0.0644    0.0000 C   0  0  0  0  0  0  0  0  0  0  0  0
    2.5243    0.2779    0.0000 C   0  0  0  0  0  0  0  0  0  0  0  0
    4.3316   -0.9460    0.0000 N   0  0  0  0  0  0  0  0  0  0  0  0
    4.5451   -1.7429    0.0000 C   0  0  0  0  0  0  0  0  0  0  0  0
    5.3420   -1.9565    0.0000 O   0  0  0  0  0  0  0  0  0  0  0  0
    3.9618   -2.3263    0.0000 O   0  0  0  0  0  0  0  0  0  0  0  0
    5.9254   -1.3731    0.0000 C   0  0  0  0  0  0  0  0  0  0  0  0
    6.7223   -1.5866    0.0000 C   0  0  0  0  0  0  0  0  0  0  0  0
    5.7118   -0.5762    0.0000 C   0  0  0  0  0  0  0  0  0  0  0  0
   -0.6179   -1.6857    0.0000 S   0  0  0  0  0  0  0  0  0  0  0  0
   -0.8314   -2.4826    0.0000 N   0  0  0  0  0  0  0  0  0  0  0  0
    0.0971   -2.0982    0.0000 O   0  0  0  0  0  0  0  0  0  0  0  0
    0.0971   -1.2732    0.0000 O   0  0  0  0  0  0  0  0  0  0  0  0
   -1.6283   -2.6961    0.0000 C   0  0  0  0  0  0  0  0  0  0  0  0
   -1.8418   -3.4930    0.0000 C   0  0  0  0  0  0  0  0  0  0  0  0
   -2.2117   -2.1128    0.0000 C   0  0  0  0  0  0  0  0  0  0  0  0
   -2.4252   -2.9097    0.0000 C   0  0  0  0  0  0  0  0  0  0  0  0
   -3.3784   -0.9460    0.0000 N   0  0  0  0  0  0  0  0  0  0  0  0
   -3.9618   -0.3627    0.0000 C   0  0  0  0  0  0  0  0  0  0  0  0
   -4.7586   -0.5762    0.0000 O   0  0  0  0  0  0  0  0  0  0  0  0
   -3.7482    0.4342    0.0000 O   0  0  0  0  0  0  0  0  0  0  0  0
   -5.3420    0.0072    0.0000 C   0  0  0  0  0  0  0  0  0  0  0  0
   -6.1389   -0.2064    0.0000 C   0  0  0  0  0  0  0  0  0  0  0  0
   -6.7223    0.3770    0.0000 N   0  0  0  0  0  0  0  0  0  0  0  0
  1  2  4  0  0  0  0
  2  3  4  0  0  0  0
  3  4  4  0  0  0  0
  4  5  4  0  0  0  0
  5  1  4  0  0  0  0
  3  6  1  0  0  0  0
  6  7  4  0  0  0  0
  7  8  4  0  0  0  0
  8  9  4  0  0  0  0
  9 10  4  0  0  0  0
 10 11  4  0  0  0  0
 11  6  4  0  0  0  0
  5 12  1  0  0  0  0
 12 13  4  0  0  0  0
 13 14  4  0  0  0  0
 14 15  4  0  0  0  0
 15 16  4  0  0  0  0
 16 17  4  0  0  0  0
 17 12  4  0  0  0  0
  9 33  1  0  0  0  0
 15 18  1  0  0  0  0
 18 19  1  0  0  0  0
 19 20  1  0  0  0  0
 19 21  2  0  0  0  0
 20 22  1  0  0  0  0
 22 23  1  0  0  0  0
 22 24  1  0  0  0  0
 11 25  1  0  0  0  0
 25 26  1  0  0  0  0
 25 27  2  0  0  0  0
 28 25  2  0  0  0  0
 26 29  1  0  0  0  0
 29 30  1  0  0  0  0
 29 31  1  0  0  0  0
 29 32  1  0  0  0  0
 33 34  1  0  0  0  0
 34 35  1  0  0  0  0
 34 36  2  0  0  0  0
 35 37  1  0  0  0  0
 37 38  1  0  0  0  0
 38 39  1  0  0  0  0
M  END
> <From>
www.bindingDB.org

> <BindingDB Reactant_set_id>
1155205

> <Ligand InChI>
InChI=1S/C26H33N5O6S2/c1-16(2)37-25(33)29-18-8-6-17(7-9-18)23-28-15-21(38-23)20-11-10-19(30-24(32)36-13-12-27)14-22(20)39(34,35)31-26(3,4)5/h6-11,14-16,31H,12-13,27H2,1-5H3,(H,29,33)(H,30,32)

> <Ligand InChI Key>
PKMBRKNEJWPYRE-UHFFFAOYSA-N

> <BindingDB MonomerID>
546356

> <BindingDB Ligand Name>
US11291655, No B13

> <Target Name>
DNA repair protein RAD51 homolog 1

> <Target Source Organism According to Curator or DataSource>
Homo sapiens

> <Ki (nM)>


> <IC50 (nM)>


> <Kd (nM)>


> <EC50 (nM)>
<5000

> <kon (M-1-s-1)>


> <koff (s-1)>


> <pH>


> <Temp C>


> <Curation/DataSource>
US Patent

> <Article DOI>


> <BindingDB Entry DOI>
10.7270/Q2NG4TV0

> <PMID>


> <PubChem AID>
aid1806421

> <Patent Number>
US11291655

> <Authors>
Castro, AC; McComas, CC; Vacca, J

> <Date of publication>
4/5/2022

> <Date in BindingDB>
7/21/2022

> <Institution>
Cyteir Therapeutics, Inc.

> <Link to Ligand in BindingDB>
http://www.bindingdb.org/bind/chemsearch/marvin/MolStructure.jsp?monomerid=546356

> <Link to Ligand-Target Pair in BindingDB>
http://www.bindingdb.org/jsp/dbsearch/PrimarySearch_ki.jsp?energyterm=kJ/mole&tag=pol&polymerid=4676&target=DNA+repair+protein+RAD51+homolog+1&column=ki&startPg=0&Increment=50&submit=Search

> <Link to Ligand-Target Pair in BindingDB>
http://www.bindingdb.org/jsp/dbsearch/PrimarySearch_ki.jsp?energyterm=kJ/mole&tag=r21&monomerid=546356&enzyme=DNA+repair+protein+RAD51+homolog+1&column=ki&startPg=0&Increment=50&submit=Search

> <Ligand HET ID in PDB>


> <PDB ID(s) for Ligand-Target Complex>


> <PubChem CID of Ligand>
137411822

> <PubChem SID of Ligand>
469681052

> <ChEBI ID of Ligand>


> <ChEMBL ID of Ligand>


> <DrugBank ID of Ligand>


> <IUPHAR_GRAC ID of Ligand>


> <KEGG ID of Ligand>


> <ZINC ID of Ligand>


> <Number of Protein Chains in Target (bigger than 1 implies a multichain complex)>
1

> <BindingDB Target Chain Sequence>
MAMQMQLEANADTSVEEESFGPQPISRLEQCGINANDVKKLEEAGFHTVEAVAYAPKKELINIKGISEAKADKILAEAAKLVPMGFTTATEFHQRRSEIIQITTGSKELDKLLQGGIETGSITEMFGEFRTGKTQICHTLAVTCQLPIDRGGGEGKAMYIDTEGTFRPERLLAVAERYGLSGSDVLDNVAYARAFNTDHQTQLLYQASAMMVESRYALLIVDSATALYRTDYSGRGELSARQMHLARFLRMLLRLADEFGVAVVITNQVVAQVDGAAMFAADPKKPIGGNIIAHASTTRLYLRKGRGETRICKIYDSPCLPEAEAMFAINADGVGDAKD

> <PDB ID(s) of Target Chain>
1N0W,5JZC,5NP7,5NWL,8BQ2,8BR2,8BSC

> <UniProt (SwissProt) Recommended Name of Target Chain>
DNA repair protein RAD51 homolog 1

> <UniProt (SwissProt) Entry Name of Target Chain>
RAD51_HUMAN

> <UniProt (SwissProt) Primary ID of Target Chain>
Q06609

> <UniProt (SwissProt) Secondary ID(s) of Target Chain>
B0FXP0 B2R8T6 Q6FHX9 Q6ZNA8 Q9BV60

> <UniProt (SwissProt) Alternative ID(s) of Target Chain>


> <UniProt (TrEMBL) Submitted Name of Target Chain>


> <UniProt (TrEMBL) Entry Name of Target Chain>


> <UniProt (TrEMBL) Primary ID of Target Chain>


> <UniProt (TrEMBL) Secondary ID(s) of Target Chain>


> <UniProt (TrEMBL) Alternative ID(s) of Target Chain>


$$$$
00216001.cdx
  Mrv0541 07212217012D          

 42 45  0  0  0  0            999 V2000
    1.2649    2.0929    0.0000 N   0  0  0  0  0  0  0  0  0  0  0  0
    0.4399    2.0929    0.0000 C   0  0  0  0  0  0  0  0  0  0  0  0
    0.1849    1.3082    0.0000 C   0  0  0  0  0  0  0  0  0  0  0  0
    0.8524    0.8233    0.0000 S   0  0  0  0  0  0  0  0  0  0  0  0
    1.5198    1.3082    0.0000 C   0  0  0  0  0  0  0  0  0  0  0  0
   -0.6120    1.0947    0.0000 C   0  0  0  0  0  0  0  0  0  0  0  0
   -1.1953    1.6781    0.0000 C   0  0  0  0  0  0  0  0  0  0  0  0
   -1.9922    1.4645    0.0000 C   0  0  0  0  0  0  0  0  0  0  0  0
   -2.2057    0.6677    0.0000 C   0  0  0  0  0  0  0  0  0  0  0  0
   -1.6224    0.0843    0.0000 C   0  0  0  0  0  0  0  0  0  0  0  0
   -0.8255    0.2978    0.0000 C   0  0  0  0  0  0  0  0  0  0  0  0
    2.3167    1.0947    0.0000 C   0  0  0  0  0  0  0  0  0  0  0  0
    2.5302    0.2978    0.0000 C   0  0  0  0  0  0  0  0  0  0  0  0
    3.3271    0.0843    0.0000 C   0  0  0  0  0  0  0  0  0  0  0  0
    3.9105    0.6677    0.0000 C   0  0  0  0  0  0  0  0  0  0  0  0
    3.6969    1.4645    0.0000 C   0  0  0  0  0  0  0  0  0  0  0  0
    2.9000    1.6781    0.0000 C   0  0  0  0  0  0  0  0  0  0  0  0
    4.7074    0.4541    0.0000 N   0  0  0  0  0  0  0  0  0  0  0  0
    4.9209   -0.3428    0.0000 C   0  0  0  0  0  0  0  0  0  0  0  0
    5.7178   -0.5563    0.0000 O   0  0  0  0  0  0  0  0  0  0  0  0
    4.3375   -0.9261    0.0000 O   0  0  0  0  0  0  0  0  0  0  0  0
    6.3011    0.0271    0.0000 C   0  0  0  0  0  0  0  0  0  0  0  0
    7.0980   -0.1865    0.0000 C   0  0  0  0  0  0  0  0  0  0  0  0
    6.0876    0.8240    0.0000 C   0  0  0  0  0  0  0  0  0  0  0  0
   -0.2421   -0.2855    0.0000 S   0  0  0  0  0  0  0  0  0  0  0  0
   -0.4557   -1.0824    0.0000 N   0  0  0  0  0  0  0  0  0  0  0  0
    0.4729   -0.6980    0.0000 O   0  0  0  0  0  0  0  0  0  0  0  0
    0.4729    0.1270    0.0000 O   0  0  0  0  0  0  0  0  0  0  0  0
   -1.2525   -1.2960    0.0000 C   0  0  0  0  0  0  0  0  0  0  0  0
   -1.4661   -2.0929    0.0000 C   0  0  0  0  0  0  0  0  0  0  0  0
   -1.8359   -0.7126    0.0000 C   0  0  0  0  0  0  0  0  0  0  0  0
   -2.0494   -1.5095    0.0000 C   0  0  0  0  0  0  0  0  0  0  0  0
   -3.0026    0.4541    0.0000 N   0  0  0  0  0  0  0  0  0  0  0  0
   -3.5860    1.0375    0.0000 C   0  0  0  0  0  0  0  0  0  0  0  0
   -4.3829    0.8240    0.0000 O   0  0  0  0  0  0  0  0  0  0  0  0
   -3.3725    1.8344    0.0000 O   0  0  0  0  0  0  0  0  0  0  0  0
   -4.9663    1.4073    0.0000 C   0  0  0  0  0  0  0  0  0  0  0  0
   -6.8431    0.4092    0.0000 C   0  0  0  0  0  0  0  0  0  0  0  0
   -6.0181    0.4092    0.0000 N   0  0  0  0  0  0  0  0  0  0  0  0
   -5.7631    1.1938    0.0000 C   0  0  0  0  0  0  0  0  0  0  0  0
   -6.4306    1.6787    0.0000 N   0  0  0  0  0  0  0  0  0  0  0  0
   -7.0980    1.1938    0.0000 C   0  0  0  0  0  0  0  0  0  0  0  0
  1  2  4  0  0  0  0
  2  3  4  0  0  0  0
  3  4  4  0  0  0  0
  4  5  4  0  0  0  0
  5  1  4  0  0  0  0
  3  6  1  0  0  0  0
  6  7  4  0  0  0  0
  7  8  4  0  0  0  0
  8  9  4  0  0  0  0
  9 10  4  0  0  0  0
 10 11  4  0  0  0  0
 11  6  4  0  0  0  0
  5 12  1  0  0  0  0
 12 13  4  0  0  0  0
 13 14  4  0  0  0  0
 14 15  4  0  0  0  0
 15 16  4  0  0  0  0
 16 17  4  0  0  0  0
 17 12  4  0  0  0  0
  9 33  1  0  0  0  0
 15 18  1  0  0  0  0
 18 19  1  0  0  0  0
 19 20  1  0  0  0  0
 19 21  2  0  0  0  0
 20 22  1  0  0  0  0
 22 23  1  0  0  0  0
 22 24  1  0  0  0  0
 11 25  1  0  0  0  0
 25 26  1  0  0  0  0
 25 27  2  0  0  0  0
 28 25  2  0  0  0  0
 26 29  1  0  0  0  0
 29 30  1  0  0  0  0
 29 31  1  0  0  0  0
 29 32  1  0  0  0  0
 33 34  1  0  0  0  0
 34 35  1  0  0  0  0
 34 36  2  0  0  0  0
 35 37  1  0  0  0  0
 37 40  1  0  0  0  0
 38 39  4  0  0  0  0
 39 40  4  0  0  0  0
 40 41  4  0  0  0  0
 41 42  4  0  0  0  0
 42 38  4  0  0  0  0
M  STY  1   1 DAT
M  SAL   1  1  39
M  SDT   1 MRV_IMPLICIT_H                                        
M  SDD   1     0.0000    0.0000    DR    ALL  0       0  
M  SED   1 IMPL_H1
M  END
> <From>
www.bindingDB.org

> <BindingDB Reactant_set_id>
1155206

> <Ligand InChI>
InChI=1S/C28H32N6O6S2/c1-17(2)40-27(36)32-19-8-6-18(7-9-19)25-31-15-22(41-25)21-11-10-20(14-23(21)42(37,38)34-28(3,4)5)33-26(35)39-16-24-29-12-13-30-24/h6-15,17,34H,16H2,1-5H3,(H,29,30)(H,32,36)(H,33,35)

> <Ligand InChI Key>
CFVHRUHEHVKBJE-UHFFFAOYSA-N

> <BindingDB MonomerID>
546357

> <BindingDB Ligand Name>
US11291655, No B14

> <Target Name>
DNA repair protein RAD51 homolog 1

> <Target Source Organism According to Curator or DataSource>
Homo sapiens

> <Ki (nM)>


> <IC50 (nM)>


> <Kd (nM)>


> <EC50 (nM)>
<10000

> <kon (M-1-s-1)>


> <koff (s-1)>


> <pH>


> <Temp C>


> <Curation/DataSource>
US Patent

> <Article DOI>


> <BindingDB Entry DOI>
10.7270/Q2NG4TV0

> <PMID>


> <PubChem AID>
aid1806421

> <Patent Number>
US11291655

> <Authors>
Castro, AC; McComas, CC; Vacca, J

> <Date of publication>
4/5/2022

> <Date in BindingDB>
7/21/2022

> <Institution>
Cyteir Therapeutics, Inc.

> <Link to Ligand in BindingDB>
http://www.bindingdb.org/bind/chemsearch/marvin/MolStructure.jsp?monomerid=546357

> <Link to Ligand-Target Pair in BindingDB>
http://www.bindingdb.org/jsp/dbsearch/PrimarySearch_ki.jsp?energyterm=kJ/mole&tag=pol&polymerid=4676&target=DNA+repair+protein+RAD51+homolog+1&column=ki&startPg=0&Increment=50&submit=Search

> <Link to Ligand-Target Pair in BindingDB>
http://www.bindingdb.org/jsp/dbsearch/PrimarySearch_ki.jsp?energyterm=kJ/mole&tag=r21&monomerid=546357&enzyme=DNA+repair+protein+RAD51+homolog+1&column=ki&startPg=0&Increment=50&submit=Search

> <Ligand HET ID in PDB>


> <PDB ID(s) for Ligand-Target Complex>


> <PubChem CID of Ligand>
137411761

> <PubChem SID of Ligand>
469681053

> <ChEBI ID of Ligand>


> <ChEMBL ID of Ligand>


> <DrugBank ID of Ligand>


> <IUPHAR_GRAC ID of Ligand>


> <KEGG ID of Ligand>


> <ZINC ID of Ligand>


> <Number of Protein Chains in Target (bigger than 1 implies a multichain complex)>
1

> <BindingDB Target Chain Sequence>
MAMQMQLEANADTSVEEESFGPQPISRLEQCGINANDVKKLEEAGFHTVEAVAYAPKKELINIKGISEAKADKILAEAAKLVPMGFTTATEFHQRRSEIIQITTGSKELDKLLQGGIETGSITEMFGEFRTGKTQICHTLAVTCQLPIDRGGGEGKAMYIDTEGTFRPERLLAVAERYGLSGSDVLDNVAYARAFNTDHQTQLLYQASAMMVESRYALLIVDSATALYRTDYSGRGELSARQMHLARFLRMLLRLADEFGVAVVITNQVVAQVDGAAMFAADPKKPIGGNIIAHASTTRLYLRKGRGETRICKIYDSPCLPEAEAMFAINADGVGDAKD

> <PDB ID(s) of Target Chain>
1N0W,5JZC,5NP7,5NWL,8BQ2,8BR2,8BSC

> <UniProt (SwissProt) Recommended Name of Target Chain>
DNA repair protein RAD51 homolog 1

> <UniProt (SwissProt) Entry Name of Target Chain>
RAD51_HUMAN

> <UniProt (SwissProt) Primary ID of Target Chain>
Q06609

> <UniProt (SwissProt) Secondary ID(s) of Target Chain>
B0FXP0 B2R8T6 Q6FHX9 Q6ZNA8 Q9BV60

> <UniProt (SwissProt) Alternative ID(s) of Target Chain>


> <UniProt (TrEMBL) Submitted Name of Target Chain>


> <UniProt (TrEMBL) Entry Name of Target Chain>


> <UniProt (TrEMBL) Primary ID of Target Chain>


> <UniProt (TrEMBL) Secondary ID(s) of Target Chain>


> <UniProt (TrEMBL) Alternative ID(s) of Target Chain>


$$$$
00217001.cdx
  Mrv0541 07212217012D          

 44 47  0  0  0  0            999 V2000
    1.3943    2.0372    0.0000 N   0  0  0  0  0  0  0  0  0  0  0  0
    0.5693    2.0372    0.0000 C   0  0  0  0  0  0  0  0  0  0  0  0
    0.3144    1.2525    0.0000 C   0  0  0  0  0  0  0  0  0  0  0  0
    0.9818    0.7676    0.0000 S   0  0  0  0  0  0  0  0  0  0  0  0
    1.6492    1.2525    0.0000 C   0  0  0  0  0  0  0  0  0  0  0  0
   -0.4825    1.0390    0.0000 C   0  0  0  0  0  0  0  0  0  0  0  0
   -1.0659    1.6224    0.0000 C   0  0  0  0  0  0  0  0  0  0  0  0
   -1.8628    1.4089    0.0000 C   0  0  0  0  0  0  0  0  0  0  0  0
   -2.0763    0.6120    0.0000 C   0  0  0  0  0  0  0  0  0  0  0  0
   -1.4929    0.0286    0.0000 C   0  0  0  0  0  0  0  0  0  0  0  0
   -0.6960    0.2421    0.0000 C   0  0  0  0  0  0  0  0  0  0  0  0
    2.4461    1.0390    0.0000 C   0  0  0  0  0  0  0  0  0  0  0  0
    2.6597    0.2421    0.0000 C   0  0  0  0  0  0  0  0  0  0  0  0
    3.4565    0.0286    0.0000 C   0  0  0  0  0  0  0  0  0  0  0  0
    4.0399    0.6120    0.0000 C   0  0  0  0  0  0  0  0  0  0  0  0
    3.8264    1.4089    0.0000 C   0  0  0  0  0  0  0  0  0  0  0  0
    3.0295    1.6224    0.0000 C   0  0  0  0  0  0  0  0  0  0  0  0
    4.8368    0.3984    0.0000 N   0  0  0  0  0  0  0  0  0  0  0  0
    5.0503   -0.3984    0.0000 C   0  0  0  0  0  0  0  0  0  0  0  0
    5.8472   -0.6120    0.0000 O   0  0  0  0  0  0  0  0  0  0  0  0
    4.4670   -0.9818    0.0000 O   0  0  0  0  0  0  0  0  0  0  0  0
    6.4306   -0.0286    0.0000 C   0  0  0  0  0  0  0  0  0  0  0  0
    7.2275   -0.2421    0.0000 C   0  0  0  0  0  0  0  0  0  0  0  0
    6.2171    0.7683    0.0000 C   0  0  0  0  0  0  0  0  0  0  0  0
   -0.1127   -0.3412    0.0000 S   0  0  0  0  0  0  0  0  0  0  0  0
   -0.3262   -1.1381    0.0000 N   0  0  0  0  0  0  0  0  0  0  0  0
    0.6024   -0.7537    0.0000 O   0  0  0  0  0  0  0  0  0  0  0  0
    0.6024    0.0713    0.0000 O   0  0  0  0  0  0  0  0  0  0  0  0
   -1.1231   -1.3516    0.0000 C   0  0  0  0  0  0  0  0  0  0  0  0
   -1.3366   -2.1485    0.0000 C   0  0  0  0  0  0  0  0  0  0  0  0
   -1.7065   -0.7683    0.0000 C   0  0  0  0  0  0  0  0  0  0  0  0
   -1.9200   -1.5652    0.0000 C   0  0  0  0  0  0  0  0  0  0  0  0
   -2.8732    0.3984    0.0000 N   0  0  0  0  0  0  0  0  0  0  0  0
   -3.4565    0.9818    0.0000 C   0  0  0  0  0  0  0  0  0  0  0  0
   -4.2534    0.7683    0.0000 O   0  0  0  0  0  0  0  0  0  0  0  0
   -3.2430    1.7787    0.0000 O   0  0  0  0  0  0  0  0  0  0  0  0
   -4.8368    1.3516    0.0000 C   0  0  0  0  0  0  0  0  0  0  0  0
   -5.6337    1.1381    0.0000 C   0  0  0  0  0  0  0  0  0  0  0  0
   -4.6233    2.1485    0.0000 C   0  0  0  0  0  0  0  0  0  0  0  0
   -6.2171    1.7215    0.0000 C   0  0  0  0  0  0  0  0  0  0  0  0
   -7.0139    1.5080    0.0000 C   0  0  0  0  0  0  0  0  0  0  0  0
   -7.2275    0.7111    0.0000 C   0  0  0  0  0  0  0  0  0  0  0  0
   -6.6441    0.1277    0.0000 C   0  0  0  0  0  0  0  0  0  0  0  0
   -5.8472    0.3412    0.0000 C   0  0  0  0  0  0  0  0  0  0  0  0
  1  2  4  0  0  0  0
  2  3  4  0  0  0  0
  3  4  4  0  0  0  0
  4  5  4  0  0  0  0
  5  1  4  0  0  0  0
  3  6  1  0  0  0  0
  6  7  4  0  0  0  0
  7  8  4  0  0  0  0
  8  9  4  0  0  0  0
  9 10  4  0  0  0  0
 10 11  4  0  0  0  0
 11  6  4  0  0  0  0
  5 12  1  0  0  0  0
 12 13  4  0  0  0  0
 13 14  4  0  0  0  0
 14 15  4  0  0  0  0
 15 16  4  0  0  0  0
 16 17  4  0  0  0  0
 17 12  4  0  0  0  0
  9 33  1  0  0  0  0
 15 18  1  0  0  0  0
 18 19  1  0  0  0  0
 19 20  1  0  0  0  0
 19 21  2  0  0  0  0
 20 22  1  0  0  0  0
 22 23  1  0  0  0  0
 22 24  1  0  0  0  0
 11 25  1  0  0  0  0
 25 26  1  0  0  0  0
 25 27  2  0  0  0  0
 28 25  2  0  0  0  0
 26 29  1  0  0  0  0
 29 30  1  0  0  0  0
 29 31  1  0  0  0  0
 29 32  1  0  0  0  0
 33 34  1  0  0  0  0
 34 35  1  0  0  0  0
 34 36  2  0  0  0  0
 35 37  1  0  0  0  0
 37 38  1  0  0  0  0
 37 39  1  0  0  0  0
 38 40  4  0  0  0  0
 40 41  4  0  0  0  0
 41 42  4  0  0  0  0
 42 43  4  0  0  0  0
 43 44  4  0  0  0  0
 44 38  4  0  0  0  0
M  END
> <From>
www.bindingDB.org

> <BindingDB Reactant_set_id>
1155207

> <Ligand InChI>
InChI=1S/C32H36N4O6S2/c1-20(2)41-30(37)34-24-14-12-23(13-15-24)29-33-19-27(43-29)26-17-16-25(18-28(26)44(39,40)36-32(4,5)6)35-31(38)42-21(3)22-10-8-7-9-11-22/h7-21,36H,1-6H3,(H,34,37)(H,35,38)

> <Ligand InChI Key>
OWOYJENFRSVJKC-UHFFFAOYSA-N

> <BindingDB MonomerID>
546358

> <BindingDB Ligand Name>
US11291655, No B15

> <Target Name>
DNA repair protein RAD51 homolog 1

> <Target Source Organism According to Curator or DataSource>
Homo sapiens

> <Ki (nM)>


> <IC50 (nM)>


> <Kd (nM)>


> <EC50 (nM)>
<1000

> <kon (M-1-s-1)>


> <koff (s-1)>


> <pH>


> <Temp C>


> <Curation/DataSource>
US Patent

> <Article DOI>


> <BindingDB Entry DOI>
10.7270/Q2NG4TV0

> <PMID>


> <PubChem AID>
aid1806421

> <Patent Number>
US11291655

> <Authors>
Castro, AC; McComas, CC; Vacca, J

> <Date of publication>
4/5/2022

> <Date in BindingDB>
7/21/2022

> <Institution>
Cyteir Therapeutics, Inc.

> <Link to Ligand in BindingDB>
http://www.bindingdb.org/bind/chemsearch/marvin/MolStructure.jsp?monomerid=546358

> <Link to Ligand-Target Pair in BindingDB>
http://www.bindingdb.org/jsp/dbsearch/PrimarySearch_ki.jsp?energyterm=kJ/mole&tag=pol&polymerid=4676&target=DNA+repair+protein+RAD51+homolog+1&column=ki&startPg=0&Increment=50&submit=Search

> <Link to Ligand-Target Pair in BindingDB>
http://www.bindingdb.org/jsp/dbsearch/PrimarySearch_ki.jsp?energyterm=kJ/mole&tag=r21&monomerid=546358&enzyme=DNA+repair+protein+RAD51+homolog+1&column=ki&startPg=0&Increment=50&submit=Search

> <Ligand HET ID in PDB>


> <PDB ID(s) for Ligand-Target Complex>


> <PubChem CID of Ligand>
137411958

> <PubChem SID of Ligand>
469681054

> <ChEBI ID of Ligand>


> <ChEMBL ID of Ligand>


> <DrugBank ID of Ligand>


> <IUPHAR_GRAC ID of Ligand>


> <KEGG ID of Ligand>


> <ZINC ID of Ligand>


> <Number of Protein Chains in Target (bigger than 1 implies a multichain complex)>
1

> <BindingDB Target Chain Sequence>
MAMQMQLEANADTSVEEESFGPQPISRLEQCGINANDVKKLEEAGFHTVEAVAYAPKKELINIKGISEAKADKILAEAAKLVPMGFTTATEFHQRRSEIIQITTGSKELDKLLQGGIETGSITEMFGEFRTGKTQICHTLAVTCQLPIDRGGGEGKAMYIDTEGTFRPERLLAVAERYGLSGSDVLDNVAYARAFNTDHQTQLLYQASAMMVESRYALLIVDSATALYRTDYSGRGELSARQMHLARFLRMLLRLADEFGVAVVITNQVVAQVDGAAMFAADPKKPIGGNIIAHASTTRLYLRKGRGETRICKIYDSPCLPEAEAMFAINADGVGDAKD

> <PDB ID(s) of Target Chain>
1N0W,5JZC,5NP7,5NWL,8BQ2,8BR2,8BSC

> <UniProt (SwissProt) Recommended Name of Target Chain>
DNA repair protein RAD51 homolog 1

> <UniProt (SwissProt) Entry Name of Target Chain>
RAD51_HUMAN

> <UniProt (SwissProt) Primary ID of Target Chain>
Q06609

> <UniProt (SwissProt) Secondary ID(s) of Target Chain>
B0FXP0 B2R8T6 Q6FHX9 Q6ZNA8 Q9BV60

> <UniProt (SwissProt) Alternative ID(s) of Target Chain>


> <UniProt (TrEMBL) Submitted Name of Target Chain>


> <UniProt (TrEMBL) Entry Name of Target Chain>


> <UniProt (TrEMBL) Primary ID of Target Chain>


> <UniProt (TrEMBL) Secondary ID(s) of Target Chain>


> <UniProt (TrEMBL) Alternative ID(s) of Target Chain>


$$$$
00218001.cdx
  Mrv0541 07212217012D          

 40 42  0  0  0  0            999 V2000
    1.2875    2.0929    0.0000 N   0  0  0  0  0  0  0  0  0  0  0  0
    0.4625    2.0929    0.0000 C   0  0  0  0  0  0  0  0  0  0  0  0
    0.2076    1.3082    0.0000 C   0  0  0  0  0  0  0  0  0  0  0  0
    0.8750    0.8233    0.0000 S   0  0  0  0  0  0  0  0  0  0  0  0
    1.5425    1.3082    0.0000 C   0  0  0  0  0  0  0  0  0  0  0  0
   -0.5893    1.0947    0.0000 C   0  0  0  0  0  0  0  0  0  0  0  0
   -1.1726    1.6781    0.0000 C   0  0  0  0  0  0  0  0  0  0  0  0
   -1.9695    1.4645    0.0000 C   0  0  0  0  0  0  0  0  0  0  0  0
   -2.1831    0.6677    0.0000 C   0  0  0  0  0  0  0  0  0  0  0  0
   -1.5997    0.0843    0.0000 C   0  0  0  0  0  0  0  0  0  0  0  0
   -0.8028    0.2978    0.0000 C   0  0  0  0  0  0  0  0  0  0  0  0
    2.3394    1.0947    0.0000 C   0  0  0  0  0  0  0  0  0  0  0  0
    2.5529    0.2978    0.0000 C   0  0  0  0  0  0  0  0  0  0  0  0
    3.3498    0.0843    0.0000 C   0  0  0  0  0  0  0  0  0  0  0  0
    3.9331    0.6677    0.0000 C   0  0  0  0  0  0  0  0  0  0  0  0
    3.7196    1.4645    0.0000 C   0  0  0  0  0  0  0  0  0  0  0  0
    2.9227    1.6781    0.0000 C   0  0  0  0  0  0  0  0  0  0  0  0
    4.7300    0.4541    0.0000 N   0  0  0  0  0  0  0  0  0  0  0  0
    4.9436   -0.3428    0.0000 C   0  0  0  0  0  0  0  0  0  0  0  0
    5.7405   -0.5563    0.0000 O   0  0  0  0  0  0  0  0  0  0  0  0
    4.3602   -0.9261    0.0000 O   0  0  0  0  0  0  0  0  0  0  0  0
    6.3238    0.0271    0.0000 C   0  0  0  0  0  0  0  0  0  0  0  0
    7.1207   -0.1865    0.0000 C   0  0  0  0  0  0  0  0  0  0  0  0
    6.1103    0.8240    0.0000 C   0  0  0  0  0  0  0  0  0  0  0  0
   -0.2194   -0.2855    0.0000 S   0  0  0  0  0  0  0  0  0  0  0  0
   -0.4330   -1.0824    0.0000 N   0  0  0  0  0  0  0  0  0  0  0  0
    0.4956   -0.6980    0.0000 O   0  0  0  0  0  0  0  0  0  0  0  0
    0.4956    0.1270    0.0000 O   0  0  0  0  0  0  0  0  0  0  0  0
   -1.2299   -1.2960    0.0000 C   0  0  0  0  0  0  0  0  0  0  0  0
   -1.4434   -2.0929    0.0000 C   0  0  0  0  0  0  0  0  0  0  0  0
   -1.8132   -0.7126    0.0000 C   0  0  0  0  0  0  0  0  0  0  0  0
   -2.0267   -1.5095    0.0000 C   0  0  0  0  0  0  0  0  0  0  0  0
   -2.9799    0.4541    0.0000 N   0  0  0  0  0  0  0  0  0  0  0  0
   -3.5633    1.0375    0.0000 C   0  0  0  0  0  0  0  0  0  0  0  0
   -4.3602    0.8240    0.0000 O   0  0  0  0  0  0  0  0  0  0  0  0
   -3.3498    1.8344    0.0000 O   0  0  0  0  0  0  0  0  0  0  0  0
   -4.9436    1.4073    0.0000 C   0  0  0  0  0  0  0  0  0  0  0  0
   -5.7405    1.1938    0.0000 C   0  0  0  0  0  0  0  0  0  0  0  0
   -6.3238    1.7772    0.0000 O   0  0  0  0  0  0  0  0  0  0  0  0
   -7.1207    1.5636    0.0000 C   0  0  0  0  0  0  0  0  0  0  0  0
  1  2  4  0  0  0  0
  2  3  4  0  0  0  0
  3  4  4  0  0  0  0
  4  5  4  0  0  0  0
  5  1  4  0  0  0  0
  3  6  1  0  0  0  0
  6  7  4  0  0  0  0
  7  8  4  0  0  0  0
  8  9  4  0  0  0  0
  9 10  4  0  0  0  0
 10 11  4  0  0  0  0
 11  6  4  0  0  0  0
  5 12  1  0  0  0  0
 12 13  4  0  0  0  0
 13 14  4  0  0  0  0
 14 15  4  0  0  0  0
 15 16  4  0  0  0  0
 16 17  4  0  0  0  0
 17 12  4  0  0  0  0
  9 33  1  0  0  0  0
 15 18  1  0  0  0  0
 18 19  1  0  0  0  0
 19 20  1  0  0  0  0
 19 21  2  0  0  0  0
 20 22  1  0  0  0  0
 22 23  1  0  0  0  0
 22 24  1  0  0  0  0
 11 25  1  0  0  0  0
 25 26  1  0  0  0  0
 25 27  2  0  0  0  0
 28 25  2  0  0  0  0
 26 29  1  0  0  0  0
 29 30  1  0  0  0  0
 29 31  1  0  0  0  0
 29 32  1  0  0  0  0
 33 34  1  0  0  0  0
 34 35  1  0  0  0  0
 34 36  2  0  0  0  0
 35 37  1  0  0  0  0
 37 38  1  0  0  0  0
 38 39  1  0  0  0  0
 39 40  1  0  0  0  0
M  END
> <From>
www.bindingDB.org

> <BindingDB Reactant_set_id>
1155208

> <Ligand InChI>
InChI=1S/C27H34N4O7S2/c1-17(2)38-26(33)29-19-9-7-18(8-10-19)24-28-16-22(39-24)21-12-11-20(30-25(32)37-14-13-36-6)15-23(21)40(34,35)31-27(3,4)5/h7-12,15-17,31H,13-14H2,1-6H3,(H,29,33)(H,30,32)

> <Ligand InChI Key>
DAJIMCKGSFVVPC-UHFFFAOYSA-N

> <BindingDB MonomerID>
546359

> <BindingDB Ligand Name>
US11291655, No B2

> <Target Name>
DNA repair protein RAD51 homolog 1

> <Target Source Organism According to Curator or DataSource>
Homo sapiens

> <Ki (nM)>


> <IC50 (nM)>


> <Kd (nM)>


> <EC50 (nM)>
<1000

> <kon (M-1-s-1)>


> <koff (s-1)>


> <pH>


> <Temp C>


> <Curation/DataSource>
US Patent

> <Article DOI>


> <BindingDB Entry DOI>
10.7270/Q2NG4TV0

> <PMID>


> <PubChem AID>
aid1806421

> <Patent Number>
US11291655

> <Authors>
Castro, AC; McComas, CC; Vacca, J

> <Date of publication>
4/5/2022

> <Date in BindingDB>
7/21/2022

> <Institution>
Cyteir Therapeutics, Inc.

> <Link to Ligand in BindingDB>
http://www.bindingdb.org/bind/chemsearch/marvin/MolStructure.jsp?monomerid=546359

> <Link to Ligand-Target Pair in BindingDB>
http://www.bindingdb.org/jsp/dbsearch/PrimarySearch_ki.jsp?energyterm=kJ/mole&tag=pol&polymerid=4676&target=DNA+repair+protein+RAD51+homolog+1&column=ki&startPg=0&Increment=50&submit=Search

> <Link to Ligand-Target Pair in BindingDB>
http://www.bindingdb.org/jsp/dbsearch/PrimarySearch_ki.jsp?energyterm=kJ/mole&tag=r21&monomerid=546359&enzyme=DNA+repair+protein+RAD51+homolog+1&column=ki&startPg=0&Increment=50&submit=Search

> <Ligand HET ID in PDB>


> <PDB ID(s) for Ligand-Target Complex>


> <PubChem CID of Ligand>
137411771

> <PubChem SID of Ligand>
469681055

> <ChEBI ID of Ligand>


> <ChEMBL ID of Ligand>


> <DrugBank ID of Ligand>


> <IUPHAR_GRAC ID of Ligand>


> <KEGG ID of Ligand>


> <ZINC ID of Ligand>


> <Number of Protein Chains in Target (bigger than 1 implies a multichain complex)>
1

> <BindingDB Target Chain Sequence>
MAMQMQLEANADTSVEEESFGPQPISRLEQCGINANDVKKLEEAGFHTVEAVAYAPKKELINIKGISEAKADKILAEAAKLVPMGFTTATEFHQRRSEIIQITTGSKELDKLLQGGIETGSITEMFGEFRTGKTQICHTLAVTCQLPIDRGGGEGKAMYIDTEGTFRPERLLAVAERYGLSGSDVLDNVAYARAFNTDHQTQLLYQASAMMVESRYALLIVDSATALYRTDYSGRGELSARQMHLARFLRMLLRLADEFGVAVVITNQVVAQVDGAAMFAADPKKPIGGNIIAHASTTRLYLRKGRGETRICKIYDSPCLPEAEAMFAINADGVGDAKD

> <PDB ID(s) of Target Chain>
1N0W,5JZC,5NP7,5NWL,8BQ2,8BR2,8BSC

> <UniProt (SwissProt) Recommended Name of Target Chain>
DNA repair protein RAD51 homolog 1

> <UniProt (SwissProt) Entry Name of Target Chain>
RAD51_HUMAN

> <UniProt (SwissProt) Primary ID of Target Chain>
Q06609

> <UniProt (SwissProt) Secondary ID(s) of Target Chain>
B0FXP0 B2R8T6 Q6FHX9 Q6ZNA8 Q9BV60

> <UniProt (SwissProt) Alternative ID(s) of Target Chain>


> <UniProt (TrEMBL) Submitted Name of Target Chain>


> <UniProt (TrEMBL) Entry Name of Target Chain>


> <UniProt (TrEMBL) Primary ID of Target Chain>


> <UniProt (TrEMBL) Secondary ID(s) of Target Chain>


> <UniProt (TrEMBL) Alternative ID(s) of Target Chain>


$$$$
00219001.cdx
  Mrv0541 07212217012D          

 43 46  0  0  0  0            999 V2000
    1.3943    2.0929    0.0000 N   0  0  0  0  0  0  0  0  0  0  0  0
    0.5693    2.0929    0.0000 C   0  0  0  0  0  0  0  0  0  0  0  0
    0.3144    1.3082    0.0000 C   0  0  0  0  0  0  0  0  0  0  0  0
    0.9818    0.8233    0.0000 S   0  0  0  0  0  0  0  0  0  0  0  0
    1.6492    1.3082    0.0000 C   0  0  0  0  0  0  0  0  0  0  0  0
   -0.4825    1.0947    0.0000 C   0  0  0  0  0  0  0  0  0  0  0  0
   -1.0659    1.6781    0.0000 C   0  0  0  0  0  0  0  0  0  0  0  0
   -1.8628    1.4645    0.0000 C   0  0  0  0  0  0  0  0  0  0  0  0
   -2.0763    0.6677    0.0000 C   0  0  0  0  0  0  0  0  0  0  0  0
   -1.4929    0.0843    0.0000 C   0  0  0  0  0  0  0  0  0  0  0  0
   -0.6960    0.2978    0.0000 C   0  0  0  0  0  0  0  0  0  0  0  0
    2.4461    1.0947    0.0000 C   0  0  0  0  0  0  0  0  0  0  0  0
    2.6597    0.2978    0.0000 C   0  0  0  0  0  0  0  0  0  0  0  0
    3.4565    0.0843    0.0000 C   0  0  0  0  0  0  0  0  0  0  0  0
    4.0399    0.6677    0.0000 C   0  0  0  0  0  0  0  0  0  0  0  0
    3.8264    1.4645    0.0000 C   0  0  0  0  0  0  0  0  0  0  0  0
    3.0295    1.6781    0.0000 C   0  0  0  0  0  0  0  0  0  0  0  0
    4.8368    0.4541    0.0000 N   0  0  0  0  0  0  0  0  0  0  0  0
    5.0503   -0.3428    0.0000 C   0  0  0  0  0  0  0  0  0  0  0  0
    5.8472   -0.5563    0.0000 O   0  0  0  0  0  0  0  0  0  0  0  0
    4.4670   -0.9261    0.0000 O   0  0  0  0  0  0  0  0  0  0  0  0
    6.4306    0.0271    0.0000 C   0  0  0  0  0  0  0  0  0  0  0  0
    7.2275   -0.1865    0.0000 C   0  0  0  0  0  0  0  0  0  0  0  0
    6.2171    0.8240    0.0000 C   0  0  0  0  0  0  0  0  0  0  0  0
   -0.1127   -0.2855    0.0000 S   0  0  0  0  0  0  0  0  0  0  0  0
   -0.3262   -1.0824    0.0000 N   0  0  0  0  0  0  0  0  0  0  0  0
    0.6024   -0.6980    0.0000 O   0  0  0  0  0  0  0  0  0  0  0  0
    0.6024    0.1270    0.0000 O   0  0  0  0  0  0  0  0  0  0  0  0
   -1.1231   -1.2960    0.0000 C   0  0  0  0  0  0  0  0  0  0  0  0
   -1.3366   -2.0929    0.0000 C   0  0  0  0  0  0  0  0  0  0  0  0
   -1.7065   -0.7126    0.0000 C   0  0  0  0  0  0  0  0  0  0  0  0
   -1.9200   -1.5095    0.0000 C   0  0  0  0  0  0  0  0  0  0  0  0
   -2.8732    0.4541    0.0000 N   0  0  0  0  0  0  0  0  0  0  0  0
   -3.4566    1.0375    0.0000 C   0  0  0  0  0  0  0  0  0  0  0  0
   -4.2534    0.8240    0.0000 O   0  0  0  0  0  0  0  0  0  0  0  0
   -3.2430    1.8344    0.0000 O   0  0  0  0  0  0  0  0  0  0  0  0
   -4.8368    1.4073    0.0000 C   0  0  0  0  0  0  0  0  0  0  0  0
   -5.6337    1.1938    0.0000 C   0  0  0  0  0  0  0  0  0  0  0  0
   -6.2171    1.7772    0.0000 N   0  0  0  0  0  0  0  0  0  0  0  0
   -7.0139    1.5636    0.0000 C   0  0  0  0  0  0  0  0  0  0  0  0
   -7.2275    0.7668    0.0000 C   0  0  0  0  0  0  0  0  0  0  0  0
   -6.6441    0.1834    0.0000 C   0  0  0  0  0  0  0  0  0  0  0  0
   -5.8472    0.3969    0.0000 C   0  0  0  0  0  0  0  0  0  0  0  0
  1  2  4  0  0  0  0
  2  3  4  0  0  0  0
  3  4  4  0  0  0  0
  4  5  4  0  0  0  0
  5  1  4  0  0  0  0
  3  6  1  0  0  0  0
  6  7  4  0  0  0  0
  7  8  4  0  0  0  0
  8  9  4  0  0  0  0
  9 10  4  0  0  0  0
 10 11  4  0  0  0  0
 11  6  4  0  0  0  0
  5 12  1  0  0  0  0
 12 13  4  0  0  0  0
 13 14  4  0  0  0  0
 14 15  4  0  0  0  0
 15 16  4  0  0  0  0
 16 17  4  0  0  0  0
 17 12  4  0  0  0  0
  9 33  1  0  0  0  0
 15 18  1  0  0  0  0
 18 19  1  0  0  0  0
 19 20  1  0  0  0  0
 19 21  2  0  0  0  0
 20 22  1  0  0  0  0
 22 23  1  0  0  0  0
 22 24  1  0  0  0  0
 11 25  1  0  0  0  0
 25 26  1  0  0  0  0
 25 27  2  0  0  0  0
 28 25  2  0  0  0  0
 26 29  1  0  0  0  0
 29 30  1  0  0  0  0
 29 31  1  0  0  0  0
 29 32  1  0  0  0  0
 33 34  1  0  0  0  0
 34 35  1  0  0  0  0
 34 36  2  0  0  0  0
 35 37  1  0  0  0  0
 37 38  1  0  0  0  0
 38 39  4  0  0  0  0
 39 40  4  0  0  0  0
 40 41  4  0  0  0  0
 41 42  4  0  0  0  0
 42 43  4  0  0  0  0
 43 38  4  0  0  0  0
M  END
> <From>
www.bindingDB.org

> <BindingDB Reactant_set_id>
1155209

> <Ligand InChI>
InChI=1S/C30H33N5O6S2/c1-19(2)41-29(37)33-21-11-9-20(10-12-21)27-32-17-25(42-27)24-14-13-22(16-26(24)43(38,39)35-30(3,4)5)34-28(36)40-18-23-8-6-7-15-31-23/h6-17,19,35H,18H2,1-5H3,(H,33,37)(H,34,36)

> <Ligand InChI Key>
GQGKOAWINBXTGA-UHFFFAOYSA-N

> <BindingDB MonomerID>
546360

> <BindingDB Ligand Name>
US11291655, No B3

> <Target Name>
DNA repair protein RAD51 homolog 1

> <Target Source Organism According to Curator or DataSource>
Homo sapiens

> <Ki (nM)>


> <IC50 (nM)>


> <Kd (nM)>


> <EC50 (nM)>
<1000

> <kon (M-1-s-1)>


> <koff (s-1)>


> <pH>


> <Temp C>


> <Curation/DataSource>
US Patent

> <Article DOI>


> <BindingDB Entry DOI>
10.7270/Q2NG4TV0

> <PMID>


> <PubChem AID>
aid1806421

> <Patent Number>
US11291655

> <Authors>
Castro, AC; McComas, CC; Vacca, J

> <Date of publication>
4/5/2022

> <Date in BindingDB>
7/21/2022

> <Institution>
Cyteir Therapeutics, Inc.

> <Link to Ligand in BindingDB>
http://www.bindingdb.org/bind/chemsearch/marvin/MolStructure.jsp?monomerid=546360

> <Link to Ligand-Target Pair in BindingDB>
http://www.bindingdb.org/jsp/dbsearch/PrimarySearch_ki.jsp?energyterm=kJ/mole&tag=pol&polymerid=4676&target=DNA+repair+protein+RAD51+homolog+1&column=ki&startPg=0&Increment=50&submit=Search

> <Link to Ligand-Target Pair in BindingDB>
http://www.bindingdb.org/jsp/dbsearch/PrimarySearch_ki.jsp?energyterm=kJ/mole&tag=r21&monomerid=546360&enzyme=DNA+repair+protein+RAD51+homolog+1&column=ki&startPg=0&Increment=50&submit=Search

> <Ligand HET ID in PDB>


> <PDB ID(s) for Ligand-Target Complex>


> <PubChem CID of Ligand>
137411668

> <PubChem SID of Ligand>
469681056

> <ChEBI ID of Ligand>


> <ChEMBL ID of Ligand>


> <DrugBank ID of Ligand>


> <IUPHAR_GRAC ID of Ligand>


> <KEGG ID of Ligand>


> <ZINC ID of Ligand>


> <Number of Protein Chains in Target (bigger than 1 implies a multichain complex)>
1

> <BindingDB Target Chain Sequence>
MAMQMQLEANADTSVEEESFGPQPISRLEQCGINANDVKKLEEAGFHTVEAVAYAPKKELINIKGISEAKADKILAEAAKLVPMGFTTATEFHQRRSEIIQITTGSKELDKLLQGGIETGSITEMFGEFRTGKTQICHTLAVTCQLPIDRGGGEGKAMYIDTEGTFRPERLLAVAERYGLSGSDVLDNVAYARAFNTDHQTQLLYQASAMMVESRYALLIVDSATALYRTDYSGRGELSARQMHLARFLRMLLRLADEFGVAVVITNQVVAQVDGAAMFAADPKKPIGGNIIAHASTTRLYLRKGRGETRICKIYDSPCLPEAEAMFAINADGVGDAKD

> <PDB ID(s) of Target Chain>
1N0W,5JZC,5NP7,5NWL,8BQ2,8BR2,8BSC

> <UniProt (SwissProt) Recommended Name of Target Chain>
DNA repair protein RAD51 homolog 1

> <UniProt (SwissProt) Entry Name of Target Chain>
RAD51_HUMAN

> <UniProt (SwissProt) Primary ID of Target Chain>
Q06609

> <UniProt (SwissProt) Secondary ID(s) of Target Chain>
B0FXP0 B2R8T6 Q6FHX9 Q6ZNA8 Q9BV60

> <UniProt (SwissProt) Alternative ID(s) of Target Chain>


> <UniProt (TrEMBL) Submitted Name of Target Chain>


> <UniProt (TrEMBL) Entry Name of Target Chain>


> <UniProt (TrEMBL) Primary ID of Target Chain>


> <UniProt (TrEMBL) Secondary ID(s) of Target Chain>


> <UniProt (TrEMBL) Alternative ID(s) of Target Chain>


$$$$
00220001.cdx
  Mrv0541 07212217012D          

 43 46  0  0  0  0            999 V2000
    1.3943    2.0929    0.0000 N   0  0  0  0  0  0  0  0  0  0  0  0
    0.5693    2.0929    0.0000 C   0  0  0  0  0  0  0  0  0  0  0  0
    0.3144    1.3082    0.0000 C   0  0  0  0  0  0  0  0  0  0  0  0
    0.9818    0.8233    0.0000 S   0  0  0  0  0  0  0  0  0  0  0  0
    1.6492    1.3082    0.0000 C   0  0  0  0  0  0  0  0  0  0  0  0
   -0.4825    1.0947    0.0000 C   0  0  0  0  0  0  0  0  0  0  0  0
   -1.0659    1.6781    0.0000 C   0  0  0  0  0  0  0  0  0  0  0  0
   -1.8628    1.4645    0.0000 C   0  0  0  0  0  0  0  0  0  0  0  0
   -2.0763    0.6677    0.0000 C   0  0  0  0  0  0  0  0  0  0  0  0
   -1.4929    0.0843    0.0000 C   0  0  0  0  0  0  0  0  0  0  0  0
   -0.6960    0.2978    0.0000 C   0  0  0  0  0  0  0  0  0  0  0  0
    2.4461    1.0947    0.0000 C   0  0  0  0  0  0  0  0  0  0  0  0
    2.6597    0.2978    0.0000 C   0  0  0  0  0  0  0  0  0  0  0  0
    3.4565    0.0843    0.0000 C   0  0  0  0  0  0  0  0  0  0  0  0
    4.0399    0.6677    0.0000 C   0  0  0  0  0  0  0  0  0  0  0  0
    3.8264    1.4645    0.0000 C   0  0  0  0  0  0  0  0  0  0  0  0
    3.0295    1.6781    0.0000 C   0  0  0  0  0  0  0  0  0  0  0  0
    4.8368    0.4541    0.0000 N   0  0  0  0  0  0  0  0  0  0  0  0
    5.0503   -0.3428    0.0000 C   0  0  0  0  0  0  0  0  0  0  0  0
    5.8472   -0.5563    0.0000 O   0  0  0  0  0  0  0  0  0  0  0  0
    4.4670   -0.9261    0.0000 O   0  0  0  0  0  0  0  0  0  0  0  0
    6.4306    0.0271    0.0000 C   0  0  0  0  0  0  0  0  0  0  0  0
    7.2275   -0.1865    0.0000 C   0  0  0  0  0  0  0  0  0  0  0  0
    6.2171    0.8240    0.0000 C   0  0  0  0  0  0  0  0  0  0  0  0
   -0.1127   -0.2855    0.0000 S   0  0  0  0  0  0  0  0  0  0  0  0
   -0.3262   -1.0824    0.0000 N   0  0  0  0  0  0  0  0  0  0  0  0
    0.6024   -0.6980    0.0000 O   0  0  0  0  0  0  0  0  0  0  0  0
    0.6024    0.1270    0.0000 O   0  0  0  0  0  0  0  0  0  0  0  0
   -1.1231   -1.2960    0.0000 C   0  0  0  0  0  0  0  0  0  0  0  0
   -1.3366   -2.0929    0.0000 C   0  0  0  0  0  0  0  0  0  0  0  0
   -1.7065   -0.7126    0.0000 C   0  0  0  0  0  0  0  0  0  0  0  0
   -1.9200   -1.5095    0.0000 C   0  0  0  0  0  0  0  0  0  0  0  0
   -2.8732    0.4541    0.0000 N   0  0  0  0  0  0  0  0  0  0  0  0
   -3.4566    1.0375    0.0000 C   0  0  0  0  0  0  0  0  0  0  0  0
   -4.2534    0.8240    0.0000 O   0  0  0  0  0  0  0  0  0  0  0  0
   -3.2430    1.8344    0.0000 O   0  0  0  0  0  0  0  0  0  0  0  0
   -4.8368    1.4073    0.0000 C   0  0  0  0  0  0  0  0  0  0  0  0
   -5.6337    1.1938    0.0000 C   0  0  0  0  0  0  0  0  0  0  0  0
   -6.2171    1.7772    0.0000 C   0  0  0  0  0  0  0  0  0  0  0  0
   -7.0139    1.5636    0.0000 C   0  0  0  0  0  0  0  0  0  0  0  0
   -7.2275    0.7668    0.0000 N   0  0  0  0  0  0  0  0  0  0  0  0
   -6.6441    0.1834    0.0000 C   0  0  0  0  0  0  0  0  0  0  0  0
   -5.8472    0.3969    0.0000 C   0  0  0  0  0  0  0  0  0  0  0  0
  1  2  4  0  0  0  0
  2  3  4  0  0  0  0
  3  4  4  0  0  0  0
  4  5  4  0  0  0  0
  5  1  4  0  0  0  0
  3  6  1  0  0  0  0
  6  7  4  0  0  0  0
  7  8  4  0  0  0  0
  8  9  4  0  0  0  0
  9 10  4  0  0  0  0
 10 11  4  0  0  0  0
 11  6  4  0  0  0  0
  5 12  1  0  0  0  0
 12 13  4  0  0  0  0
 13 14  4  0  0  0  0
 14 15  4  0  0  0  0
 15 16  4  0  0  0  0
 16 17  4  0  0  0  0
 17 12  4  0  0  0  0
  9 33  1  0  0  0  0
 15 18  1  0  0  0  0
 18 19  1  0  0  0  0
 19 20  1  0  0  0  0
 19 21  2  0  0  0  0
 20 22  1  0  0  0  0
 22 23  1  0  0  0  0
 22 24  1  0  0  0  0
 11 25  1  0  0  0  0
 25 26  1  0  0  0  0
 25 27  2  0  0  0  0
 28 25  2  0  0  0  0
 26 29  1  0  0  0  0
 29 30  1  0  0  0  0
 29 31  1  0  0  0  0
 29 32  1  0  0  0  0
 33 34  1  0  0  0  0
 34 35  1  0  0  0  0
 34 36  2  0  0  0  0
 35 37  1  0  0  0  0
 37 38  1  0  0  0  0
 38 39  4  0  0  0  0
 39 40  4  0  0  0  0
 40 41  4  0  0  0  0
 41 42  4  0  0  0  0
 42 43  4  0  0  0  0
 43 38  4  0  0  0  0
M  END
> <From>
www.bindingDB.org

> <BindingDB Reactant_set_id>
1155210

> <Ligand InChI>
InChI=1S/C30H33N5O6S2/c1-19(2)41-29(37)33-22-8-6-21(7-9-22)27-32-17-25(42-27)24-11-10-23(16-26(24)43(38,39)35-30(3,4)5)34-28(36)40-18-20-12-14-31-15-13-20/h6-17,19,35H,18H2,1-5H3,(H,33,37)(H,34,36)

> <Ligand InChI Key>
RWQVVCNHSPOHIV-UHFFFAOYSA-N

> <BindingDB MonomerID>
546361

> <BindingDB Ligand Name>
US11291655, No B4

> <Target Name>
DNA repair protein RAD51 homolog 1

> <Target Source Organism According to Curator or DataSource>
Homo sapiens

> <Ki (nM)>


> <IC50 (nM)>


> <Kd (nM)>


> <EC50 (nM)>
<1000

> <kon (M-1-s-1)>


> <koff (s-1)>


> <pH>


> <Temp C>


> <Curation/DataSource>
US Patent

> <Article DOI>


> <BindingDB Entry DOI>
10.7270/Q2NG4TV0

> <PMID>


> <PubChem AID>
aid1806421

> <Patent Number>
US11291655

> <Authors>
Castro, AC; McComas, CC; Vacca, J

> <Date of publication>
4/5/2022

> <Date in BindingDB>
7/21/2022

> <Institution>
Cyteir Therapeutics, Inc.

> <Link to Ligand in BindingDB>
http://www.bindingdb.org/bind/chemsearch/marvin/MolStructure.jsp?monomerid=546361

> <Link to Ligand-Target Pair in BindingDB>
http://www.bindingdb.org/jsp/dbsearch/PrimarySearch_ki.jsp?energyterm=kJ/mole&tag=pol&polymerid=4676&target=DNA+repair+protein+RAD51+homolog+1&column=ki&startPg=0&Increment=50&submit=Search

> <Link to Ligand-Target Pair in BindingDB>
http://www.bindingdb.org/jsp/dbsearch/PrimarySearch_ki.jsp?energyterm=kJ/mole&tag=r21&monomerid=546361&enzyme=DNA+repair+protein+RAD51+homolog+1&column=ki&startPg=0&Increment=50&submit=Search

> <Ligand HET ID in PDB>


> <PDB ID(s) for Ligand-Target Complex>


> <PubChem CID of Ligand>
137411709

> <PubChem SID of Ligand>
469681057

> <ChEBI ID of Ligand>


> <ChEMBL ID of Ligand>


> <DrugBank ID of Ligand>


> <IUPHAR_GRAC ID of Ligand>


> <KEGG ID of Ligand>


> <ZINC ID of Ligand>


> <Number of Protein Chains in Target (bigger than 1 implies a multichain complex)>
1

> <BindingDB Target Chain Sequence>
MAMQMQLEANADTSVEEESFGPQPISRLEQCGINANDVKKLEEAGFHTVEAVAYAPKKELINIKGISEAKADKILAEAAKLVPMGFTTATEFHQRRSEIIQITTGSKELDKLLQGGIETGSITEMFGEFRTGKTQICHTLAVTCQLPIDRGGGEGKAMYIDTEGTFRPERLLAVAERYGLSGSDVLDNVAYARAFNTDHQTQLLYQASAMMVESRYALLIVDSATALYRTDYSGRGELSARQMHLARFLRMLLRLADEFGVAVVITNQVVAQVDGAAMFAADPKKPIGGNIIAHASTTRLYLRKGRGETRICKIYDSPCLPEAEAMFAINADGVGDAKD

> <PDB ID(s) of Target Chain>
1N0W,5JZC,5NP7,5NWL,8BQ2,8BR2,8BSC

> <UniProt (SwissProt) Recommended Name of Target Chain>
DNA repair protein RAD51 homolog 1

> <UniProt (SwissProt) Entry Name of Target Chain>
RAD51_HUMAN

> <UniProt (SwissProt) Primary ID of Target Chain>
Q06609

> <UniProt (SwissProt) Secondary ID(s) of Target Chain>
B0FXP0 B2R8T6 Q6FHX9 Q6ZNA8 Q9BV60

> <UniProt (SwissProt) Alternative ID(s) of Target Chain>


> <UniProt (TrEMBL) Submitted Name of Target Chain>


> <UniProt (TrEMBL) Entry Name of Target Chain>


> <UniProt (TrEMBL) Primary ID of Target Chain>


> <UniProt (TrEMBL) Secondary ID(s) of Target Chain>


> <UniProt (TrEMBL) Alternative ID(s) of Target Chain>


$$$$
00221001.cdx
  Mrv0541 07212217012D          

 40 42  0  0  0  0            999 V2000
    0.8891    2.0929    0.0000 N   0  0  0  0  0  0  0  0  0  0  0  0
    0.0641    2.0929    0.0000 C   0  0  0  0  0  0  0  0  0  0  0  0
   -0.1908    1.3082    0.0000 C   0  0  0  0  0  0  0  0  0  0  0  0
    0.4766    0.8233    0.0000 S   0  0  0  0  0  0  0  0  0  0  0  0
    1.1440    1.3082    0.0000 C   0  0  0  0  0  0  0  0  0  0  0  0
   -0.9877    1.0947    0.0000 C   0  0  0  0  0  0  0  0  0  0  0  0
   -1.5711    1.6781    0.0000 C   0  0  0  0  0  0  0  0  0  0  0  0
   -2.3680    1.4645    0.0000 C   0  0  0  0  0  0  0  0  0  0  0  0
   -2.5815    0.6677    0.0000 C   0  0  0  0  0  0  0  0  0  0  0  0
   -1.9981    0.0843    0.0000 C   0  0  0  0  0  0  0  0  0  0  0  0
   -1.2013    0.2978    0.0000 C   0  0  0  0  0  0  0  0  0  0  0  0
    1.9409    1.0947    0.0000 C   0  0  0  0  0  0  0  0  0  0  0  0
    2.1545    0.2978    0.0000 C   0  0  0  0  0  0  0  0  0  0  0  0
    2.9513    0.0843    0.0000 C   0  0  0  0  0  0  0  0  0  0  0  0
    3.5347    0.6677    0.0000 C   0  0  0  0  0  0  0  0  0  0  0  0
    3.3212    1.4645    0.0000 C   0  0  0  0  0  0  0  0  0  0  0  0
    2.5243    1.6781    0.0000 C   0  0  0  0  0  0  0  0  0  0  0  0
    4.3316    0.4541    0.0000 N   0  0  0  0  0  0  0  0  0  0  0  0
    4.5451   -0.3428    0.0000 C   0  0  0  0  0  0  0  0  0  0  0  0
    5.3420   -0.5563    0.0000 O   0  0  0  0  0  0  0  0  0  0  0  0
    3.9618   -0.9261    0.0000 O   0  0  0  0  0  0  0  0  0  0  0  0
    5.9254    0.0271    0.0000 C   0  0  0  0  0  0  0  0  0  0  0  0
    6.7223   -0.1865    0.0000 C   0  0  0  0  0  0  0  0  0  0  0  0
    5.7118    0.8240    0.0000 C   0  0  0  0  0  0  0  0  0  0  0  0
   -0.6179   -0.2855    0.0000 S   0  0  0  0  0  0  0  0  0  0  0  0
   -0.8314   -1.0824    0.0000 N   0  0  0  0  0  0  0  0  0  0  0  0
    0.0971   -0.6980    0.0000 O   0  0  0  0  0  0  0  0  0  0  0  0
    0.0971    0.1270    0.0000 O   0  0  0  0  0  0  0  0  0  0  0  0
   -1.6283   -1.2960    0.0000 C   0  0  0  0  0  0  0  0  0  0  0  0
   -1.8418   -2.0929    0.0000 C   0  0  0  0  0  0  0  0  0  0  0  0
   -2.2117   -0.7126    0.0000 C   0  0  0  0  0  0  0  0  0  0  0  0
   -2.4252   -1.5095    0.0000 C   0  0  0  0  0  0  0  0  0  0  0  0
   -3.3784    0.4541    0.0000 N   0  0  0  0  0  0  0  0  0  0  0  0
   -3.9618    1.0375    0.0000 C   0  0  0  0  0  0  0  0  0  0  0  0
   -4.7586    0.8240    0.0000 O   0  0  0  0  0  0  0  0  0  0  0  0
   -3.7482    1.8344    0.0000 O   0  0  0  0  0  0  0  0  0  0  0  0
   -5.3420    1.4073    0.0000 C   0  0  0  0  0  0  0  0  0  0  0  0
   -6.1389    1.1938    0.0000 C   0  0  0  0  0  0  0  0  0  0  0  0
   -6.7223    1.7772    0.0000 C   0  0  0  0  0  0  0  0  0  0  0  0
   -6.3524    0.3969    0.0000 C   0  0  0  0  0  0  0  0  0  0  0  0
  1  2  4  0  0  0  0
  2  3  4  0  0  0  0
  3  4  4  0  0  0  0
  4  5  4  0  0  0  0
  5  1  4  0  0  0  0
  3  6  1  0  0  0  0
  6  7  4  0  0  0  0
  7  8  4  0  0  0  0
  8  9  4  0  0  0  0
  9 10  4  0  0  0  0
 10 11  4  0  0  0  0
 11  6  4  0  0  0  0
  5 12  1  0  0  0  0
 12 13  4  0  0  0  0
 13 14  4  0  0  0  0
 14 15  4  0  0  0  0
 15 16  4  0  0  0  0
 16 17  4  0  0  0  0
 17 12  4  0  0  0  0
  9 33  1  0  0  0  0
 15 18  1  0  0  0  0
 18 19  1  0  0  0  0
 19 20  1  0  0  0  0
 19 21  2  0  0  0  0
 20 22  1  0  0  0  0
 22 23  1  0  0  0  0
 22 24  1  0  0  0  0
 11 25  1  0  0  0  0
 25 26  1  0  0  0  0
 25 27  2  0  0  0  0
 28 25  2  0  0  0  0
 26 29  1  0  0  0  0
 29 30  1  0  0  0  0
 29 31  1  0  0  0  0
 29 32  1  0  0  0  0
 33 34  1  0  0  0  0
 34 35  1  0  0  0  0
 34 36  2  0  0  0  0
 35 37  1  0  0  0  0
 37 38  1  0  0  0  0
 38 39  2  0  0  0  0
 38 40  1  0  0  0  0
M  END
> <From>
www.bindingDB.org

> <BindingDB Reactant_set_id>
1155211

> <Ligand InChI>
InChI=1S/C28H34N4O6S2/c1-17(2)16-37-26(33)31-21-12-13-22(24(14-21)40(35,36)32-28(5,6)7)23-15-29-25(39-23)19-8-10-20(11-9-19)30-27(34)38-18(3)4/h8-15,18,32H,1,16H2,2-7H3,(H,30,34)(H,31,33)

> <Ligand InChI Key>
DCTIDCRGIUZIST-UHFFFAOYSA-N

> <BindingDB MonomerID>
546362

> <BindingDB Ligand Name>
US11291655, No B5

> <Target Name>
DNA repair protein RAD51 homolog 1

> <Target Source Organism According to Curator or DataSource>
Homo sapiens

> <Ki (nM)>


> <IC50 (nM)>


> <Kd (nM)>


> <EC50 (nM)>
<1000

> <kon (M-1-s-1)>


> <koff (s-1)>


> <pH>


> <Temp C>


> <Curation/DataSource>
US Patent

> <Article DOI>


> <BindingDB Entry DOI>
10.7270/Q2NG4TV0

> <PMID>


> <PubChem AID>
aid1806421

> <Patent Number>
US11291655

> <Authors>
Castro, AC; McComas, CC; Vacca, J

> <Date of publication>
4/5/2022

> <Date in BindingDB>
7/21/2022

> <Institution>
Cyteir Therapeutics, Inc.

> <Link to Ligand in BindingDB>
http://www.bindingdb.org/bind/chemsearch/marvin/MolStructure.jsp?monomerid=546362

> <Link to Ligand-Target Pair in BindingDB>
http://www.bindingdb.org/jsp/dbsearch/PrimarySearch_ki.jsp?energyterm=kJ/mole&tag=pol&polymerid=4676&target=DNA+repair+protein+RAD51+homolog+1&column=ki&startPg=0&Increment=50&submit=Search

> <Link to Ligand-Target Pair in BindingDB>
http://www.bindingdb.org/jsp/dbsearch/PrimarySearch_ki.jsp?energyterm=kJ/mole&tag=r21&monomerid=546362&enzyme=DNA+repair+protein+RAD51+homolog+1&column=ki&startPg=0&Increment=50&submit=Search

> <Ligand HET ID in PDB>


> <PDB ID(s) for Ligand-Target Complex>


> <PubChem CID of Ligand>
137411772

> <PubChem SID of Ligand>
469681058

> <ChEBI ID of Ligand>


> <ChEMBL ID of Ligand>


> <DrugBank ID of Ligand>


> <IUPHAR_GRAC ID of Ligand>


> <KEGG ID of Ligand>


> <ZINC ID of Ligand>


> <Number of Protein Chains in Target (bigger than 1 implies a multichain complex)>
1

> <BindingDB Target Chain Sequence>
MAMQMQLEANADTSVEEESFGPQPISRLEQCGINANDVKKLEEAGFHTVEAVAYAPKKELINIKGISEAKADKILAEAAKLVPMGFTTATEFHQRRSEIIQITTGSKELDKLLQGGIETGSITEMFGEFRTGKTQICHTLAVTCQLPIDRGGGEGKAMYIDTEGTFRPERLLAVAERYGLSGSDVLDNVAYARAFNTDHQTQLLYQASAMMVESRYALLIVDSATALYRTDYSGRGELSARQMHLARFLRMLLRLADEFGVAVVITNQVVAQVDGAAMFAADPKKPIGGNIIAHASTTRLYLRKGRGETRICKIYDSPCLPEAEAMFAINADGVGDAKD

> <PDB ID(s) of Target Chain>
1N0W,5JZC,5NP7,5NWL,8BQ2,8BR2,8BSC

> <UniProt (SwissProt) Recommended Name of Target Chain>
DNA repair protein RAD51 homolog 1

> <UniProt (SwissProt) Entry Name of Target Chain>
RAD51_HUMAN

> <UniProt (SwissProt) Primary ID of Target Chain>
Q06609

> <UniProt (SwissProt) Secondary ID(s) of Target Chain>
B0FXP0 B2R8T6 Q6FHX9 Q6ZNA8 Q9BV60

> <UniProt (SwissProt) Alternative ID(s) of Target Chain>


> <UniProt (TrEMBL) Submitted Name of Target Chain>


> <UniProt (TrEMBL) Entry Name of Target Chain>


> <UniProt (TrEMBL) Primary ID of Target Chain>


> <UniProt (TrEMBL) Secondary ID(s) of Target Chain>


> <UniProt (TrEMBL) Alternative ID(s) of Target Chain>


$$$$
00222001.cdx
  Mrv0541 07212217012D          

 43 46  0  0  0  0            999 V2000
    1.3943    2.0929    0.0000 N   0  0  0  0  0  0  0  0  0  0  0  0
    0.5693    2.0929    0.0000 C   0  0  0  0  0  0  0  0  0  0  0  0
    0.3144    1.3082    0.0000 C   0  0  0  0  0  0  0  0  0  0  0  0
    0.9818    0.8233    0.0000 S   0  0  0  0  0  0  0  0  0  0  0  0
    1.6492    1.3082    0.0000 C   0  0  0  0  0  0  0  0  0  0  0  0
   -0.4825    1.0947    0.0000 C   0  0  0  0  0  0  0  0  0  0  0  0
   -1.0659    1.6781    0.0000 C   0  0  0  0  0  0  0  0  0  0  0  0
   -1.8628    1.4645    0.0000 C   0  0  0  0  0  0  0  0  0  0  0  0
   -2.0763    0.6677    0.0000 C   0  0  0  0  0  0  0  0  0  0  0  0
   -1.4929    0.0843    0.0000 C   0  0  0  0  0  0  0  0  0  0  0  0
   -0.6960    0.2978    0.0000 C   0  0  0  0  0  0  0  0  0  0  0  0
    2.4461    1.0947    0.0000 C   0  0  0  0  0  0  0  0  0  0  0  0
    2.6597    0.2978    0.0000 C   0  0  0  0  0  0  0  0  0  0  0  0
    3.4565    0.0843    0.0000 C   0  0  0  0  0  0  0  0  0  0  0  0
    4.0399    0.6677    0.0000 C   0  0  0  0  0  0  0  0  0  0  0  0
    3.8264    1.4645    0.0000 C   0  0  0  0  0  0  0  0  0  0  0  0
    3.0295    1.6781    0.0000 C   0  0  0  0  0  0  0  0  0  0  0  0
    4.8368    0.4541    0.0000 N   0  0  0  0  0  0  0  0  0  0  0  0
    5.0503   -0.3428    0.0000 C   0  0  0  0  0  0  0  0  0  0  0  0
    5.8472   -0.5563    0.0000 O   0  0  0  0  0  0  0  0  0  0  0  0
    4.4670   -0.9261    0.0000 O   0  0  0  0  0  0  0  0  0  0  0  0
    6.4306    0.0271    0.0000 C   0  0  0  0  0  0  0  0  0  0  0  0
    7.2275   -0.1865    0.0000 C   0  0  0  0  0  0  0  0  0  0  0  0
    6.2171    0.8240    0.0000 C   0  0  0  0  0  0  0  0  0  0  0  0
   -0.1127   -0.2855    0.0000 S   0  0  0  0  0  0  0  0  0  0  0  0
   -0.3262   -1.0824    0.0000 N   0  0  0  0  0  0  0  0  0  0  0  0
    0.6024   -0.6980    0.0000 O   0  0  0  0  0  0  0  0  0  0  0  0
    0.6024    0.1270    0.0000 O   0  0  0  0  0  0  0  0  0  0  0  0
   -1.1231   -1.2960    0.0000 C   0  0  0  0  0  0  0  0  0  0  0  0
   -1.3366   -2.0929    0.0000 C   0  0  0  0  0  0  0  0  0  0  0  0
   -1.7065   -0.7126    0.0000 C   0  0  0  0  0  0  0  0  0  0  0  0
   -1.9200   -1.5095    0.0000 C   0  0  0  0  0  0  0  0  0  0  0  0
   -2.8732    0.4541    0.0000 N   0  0  0  0  0  0  0  0  0  0  0  0
   -3.4566    1.0375    0.0000 C   0  0  0  0  0  0  0  0  0  0  0  0
   -4.2534    0.8240    0.0000 C   0  0  0  0  0  0  0  0  0  0  0  0
   -3.2430    1.8344    0.0000 O   0  0  0  0  0  0  0  0  0  0  0  0
   -4.8368    1.4073    0.0000 C   0  0  0  0  0  0  0  0  0  0  0  0
   -5.6337    1.1938    0.0000 C   0  0  0  0  0  0  0  0  0  0  0  0
   -6.2171    1.7772    0.0000 C   0  0  0  0  0  0  0  0  0  0  0  0
   -7.0139    1.5636    0.0000 C   0  0  0  0  0  0  0  0  0  0  0  0
   -7.2275    0.7668    0.0000 C   0  0  0  0  0  0  0  0  0  0  0  0
   -6.6441    0.1834    0.0000 C   0  0  0  0  0  0  0  0  0  0  0  0
   -5.8472    0.3969    0.0000 C   0  0  0  0  0  0  0  0  0  0  0  0
  1  2  4  0  0  0  0
  2  3  4  0  0  0  0
  3  4  4  0  0  0  0
  4  5  4  0  0  0  0
  5  1  4  0  0  0  0
  3  6  1  0  0  0  0
  6  7  4  0  0  0  0
  7  8  4  0  0  0  0
  8  9  4  0  0  0  0
  9 10  4  0  0  0  0
 10 11  4  0  0  0  0
 11  6  4  0  0  0  0
  5 12  1  0  0  0  0
 12 13  4  0  0  0  0
 13 14  4  0  0  0  0
 14 15  4  0  0  0  0
 15 16  4  0  0  0  0
 16 17  4  0  0  0  0
 17 12  4  0  0  0  0
  9 33  1  0  0  0  0
 15 18  1  0  0  0  0
 18 19  1  0  0  0  0
 19 20  1  0  0  0  0
 19 21  2  0  0  0  0
 20 22  1  0  0  0  0
 22 23  1  0  0  0  0
 22 24  1  0  0  0  0
 11 25  1  0  0  0  0
 25 26  1  0  0  0  0
 25 27  2  0  0  0  0
 28 25  2  0  0  0  0
 26 29  1  0  0  0  0
 29 30  1  0  0  0  0
 29 31  1  0  0  0  0
 29 32  1  0  0  0  0
 33 34  1  0  0  0  0
 34 35  1  0  0  0  0
 34 36  2  0  0  0  0
 35 37  1  0  0  0  0
 37 38  1  0  0  0  0
 38 39  4  0  0  0  0
 39 40  4  0  0  0  0
 40 41  4  0  0  0  0
 41 42  4  0  0  0  0
 42 43  4  0  0  0  0
 43 38  4  0  0  0  0
M  END
> <From>
www.bindingDB.org

> <BindingDB Reactant_set_id>
1155212

> <Ligand InChI>
InChI=1S/C32H36N4O5S2/c1-21(2)41-31(38)35-24-14-12-23(13-15-24)30-33-20-27(42-30)26-17-16-25(19-28(26)43(39,40)36-32(3,4)5)34-29(37)18-11-22-9-7-6-8-10-22/h6-10,12-17,19-21,36H,11,18H2,1-5H3,(H,34,37)(H,35,38)

> <Ligand InChI Key>
MCOUTCXAELAHOP-UHFFFAOYSA-N

> <BindingDB MonomerID>
546363

> <BindingDB Ligand Name>
US11291655, No B6

> <Target Name>
DNA repair protein RAD51 homolog 1

> <Target Source Organism According to Curator or DataSource>
Homo sapiens

> <Ki (nM)>


> <IC50 (nM)>


> <Kd (nM)>


> <EC50 (nM)>
<1000

> <kon (M-1-s-1)>


> <koff (s-1)>


> <pH>


> <Temp C>


> <Curation/DataSource>
US Patent

> <Article DOI>


> <BindingDB Entry DOI>
10.7270/Q2NG4TV0

> <PMID>


> <PubChem AID>
aid1806421

> <Patent Number>
US11291655

> <Authors>
Castro, AC; McComas, CC; Vacca, J

> <Date of publication>
4/5/2022

> <Date in BindingDB>
7/21/2022

> <Institution>
Cyteir Therapeutics, Inc.

> <Link to Ligand in BindingDB>
http://www.bindingdb.org/bind/chemsearch/marvin/MolStructure.jsp?monomerid=546363

> <Link to Ligand-Target Pair in BindingDB>
http://www.bindingdb.org/jsp/dbsearch/PrimarySearch_ki.jsp?energyterm=kJ/mole&tag=pol&polymerid=4676&target=DNA+repair+protein+RAD51+homolog+1&column=ki&startPg=0&Increment=50&submit=Search

> <Link to Ligand-Target Pair in BindingDB>
http://www.bindingdb.org/jsp/dbsearch/PrimarySearch_ki.jsp?energyterm=kJ/mole&tag=r21&monomerid=546363&enzyme=DNA+repair+protein+RAD51+homolog+1&column=ki&startPg=0&Increment=50&submit=Search

> <Ligand HET ID in PDB>


> <PDB ID(s) for Ligand-Target Complex>


> <PubChem CID of Ligand>
137411745

> <PubChem SID of Ligand>
469681059

> <ChEBI ID of Ligand>


> <ChEMBL ID of Ligand>


> <DrugBank ID of Ligand>


> <IUPHAR_GRAC ID of Ligand>


> <KEGG ID of Ligand>


> <ZINC ID of Ligand>


> <Number of Protein Chains in Target (bigger than 1 implies a multichain complex)>
1

> <BindingDB Target Chain Sequence>
MAMQMQLEANADTSVEEESFGPQPISRLEQCGINANDVKKLEEAGFHTVEAVAYAPKKELINIKGISEAKADKILAEAAKLVPMGFTTATEFHQRRSEIIQITTGSKELDKLLQGGIETGSITEMFGEFRTGKTQICHTLAVTCQLPIDRGGGEGKAMYIDTEGTFRPERLLAVAERYGLSGSDVLDNVAYARAFNTDHQTQLLYQASAMMVESRYALLIVDSATALYRTDYSGRGELSARQMHLARFLRMLLRLADEFGVAVVITNQVVAQVDGAAMFAADPKKPIGGNIIAHASTTRLYLRKGRGETRICKIYDSPCLPEAEAMFAINADGVGDAKD

> <PDB ID(s) of Target Chain>
1N0W,5JZC,5NP7,5NWL,8BQ2,8BR2,8BSC

> <UniProt (SwissProt) Recommended Name of Target Chain>
DNA repair protein RAD51 homolog 1

> <UniProt (SwissProt) Entry Name of Target Chain>
RAD51_HUMAN

> <UniProt (SwissProt) Primary ID of Target Chain>
Q06609

> <UniProt (SwissProt) Secondary ID(s) of Target Chain>
B0FXP0 B2R8T6 Q6FHX9 Q6ZNA8 Q9BV60

> <UniProt (SwissProt) Alternative ID(s) of Target Chain>


> <UniProt (TrEMBL) Submitted Name of Target Chain>


> <UniProt (TrEMBL) Entry Name of Target Chain>


> <UniProt (TrEMBL) Primary ID of Target Chain>


> <UniProt (TrEMBL) Secondary ID(s) of Target Chain>


> <UniProt (TrEMBL) Alternative ID(s) of Target Chain>


$$$$
00223001.cdx
  Mrv0541 07212217012D          

 42 45  0  0  0  0            999 V2000
    1.2649    2.0929    0.0000 N   0  0  0  0  0  0  0  0  0  0  0  0
    0.4399    2.0929    0.0000 C   0  0  0  0  0  0  0  0  0  0  0  0
    0.1849    1.3082    0.0000 C   0  0  0  0  0  0  0  0  0  0  0  0
    0.8524    0.8233    0.0000 S   0  0  0  0  0  0  0  0  0  0  0  0
    1.5198    1.3082    0.0000 C   0  0  0  0  0  0  0  0  0  0  0  0
   -0.6120    1.0947    0.0000 C   0  0  0  0  0  0  0  0  0  0  0  0
   -1.1953    1.6781    0.0000 C   0  0  0  0  0  0  0  0  0  0  0  0
   -1.9922    1.4645    0.0000 C   0  0  0  0  0  0  0  0  0  0  0  0
   -2.2057    0.6677    0.0000 C   0  0  0  0  0  0  0  0  0  0  0  0
   -1.6224    0.0843    0.0000 C   0  0  0  0  0  0  0  0  0  0  0  0
   -0.8255    0.2978    0.0000 C   0  0  0  0  0  0  0  0  0  0  0  0
    2.3167    1.0947    0.0000 C   0  0  0  0  0  0  0  0  0  0  0  0
    2.5302    0.2978    0.0000 C   0  0  0  0  0  0  0  0  0  0  0  0
    3.3271    0.0843    0.0000 C   0  0  0  0  0  0  0  0  0  0  0  0
    3.9105    0.6677    0.0000 C   0  0  0  0  0  0  0  0  0  0  0  0
    3.6969    1.4645    0.0000 C   0  0  0  0  0  0  0  0  0  0  0  0
    2.9000    1.6781    0.0000 C   0  0  0  0  0  0  0  0  0  0  0  0
    4.7074    0.4541    0.0000 N   0  0  0  0  0  0  0  0  0  0  0  0
    4.9209   -0.3428    0.0000 C   0  0  0  0  0  0  0  0  0  0  0  0
    5.7178   -0.5563    0.0000 O   0  0  0  0  0  0  0  0  0  0  0  0
    4.3375   -0.9261    0.0000 O   0  0  0  0  0  0  0  0  0  0  0  0
    6.3011    0.0271    0.0000 C   0  0  0  0  0  0  0  0  0  0  0  0
    7.0980   -0.1865    0.0000 C   0  0  0  0  0  0  0  0  0  0  0  0
    6.0876    0.8240    0.0000 C   0  0  0  0  0  0  0  0  0  0  0  0
   -0.2421   -0.2855    0.0000 S   0  0  0  0  0  0  0  0  0  0  0  0
   -0.4557   -1.0824    0.0000 N   0  0  0  0  0  0  0  0  0  0  0  0
    0.4729   -0.6980    0.0000 O   0  0  0  0  0  0  0  0  0  0  0  0
    0.4729    0.1270    0.0000 O   0  0  0  0  0  0  0  0  0  0  0  0
   -1.2525   -1.2960    0.0000 C   0  0  0  0  0  0  0  0  0  0  0  0
   -1.4661   -2.0929    0.0000 C   0  0  0  0  0  0  0  0  0  0  0  0
   -1.8359   -0.7126    0.0000 C   0  0  0  0  0  0  0  0  0  0  0  0
   -2.0494   -1.5095    0.0000 C   0  0  0  0  0  0  0  0  0  0  0  0
   -3.0026    0.4541    0.0000 N   0  0  0  0  0  0  0  0  0  0  0  0
   -3.5860    1.0375    0.0000 C   0  0  0  0  0  0  0  0  0  0  0  0
   -4.3829    0.8240    0.0000 O   0  0  0  0  0  0  0  0  0  0  0  0
   -3.3725    1.8344    0.0000 O   0  0  0  0  0  0  0  0  0  0  0  0
   -4.9663    1.4073    0.0000 C   0  0  0  0  0  0  0  0  0  0  0  0
   -6.8431    0.4092    0.0000 C   0  0  0  0  0  0  0  0  0  0  0  0
   -6.0181    0.4092    0.0000 N   0  0  0  0  0  0  0  0  0  0  0  0
   -5.7631    1.1938    0.0000 C   0  0  0  0  0  0  0  0  0  0  0  0
   -6.4306    1.6787    0.0000 C   0  0  0  0  0  0  0  0  0  0  0  0
   -7.0980    1.1938    0.0000 C   0  0  0  0  0  0  0  0  0  0  0  0
  1  2  4  0  0  0  0
  2  3  4  0  0  0  0
  3  4  4  0  0  0  0
  4  5  4  0  0  0  0
  5  1  4  0  0  0  0
  3  6  1  0  0  0  0
  6  7  4  0  0  0  0
  7  8  4  0  0  0  0
  8  9  4  0  0  0  0
  9 10  4  0  0  0  0
 10 11  4  0  0  0  0
 11  6  4  0  0  0  0
  5 12  1  0  0  0  0
 12 13  4  0  0  0  0
 13 14  4  0  0  0  0
 14 15  4  0  0  0  0
 15 16  4  0  0  0  0
 16 17  4  0  0  0  0
 17 12  4  0  0  0  0
  9 33  1  0  0  0  0
 15 18  1  0  0  0  0
 18 19  1  0  0  0  0
 19 20  1  0  0  0  0
 19 21  2  0  0  0  0
 20 22  1  0  0  0  0
 22 23  1  0  0  0  0
 22 24  1  0  0  0  0
 11 25  1  0  0  0  0
 25 26  1  0  0  0  0
 25 27  2  0  0  0  0
 28 25  2  0  0  0  0
 26 29  1  0  0  0  0
 29 30  1  0  0  0  0
 29 31  1  0  0  0  0
 29 32  1  0  0  0  0
 33 34  1  0  0  0  0
 34 35  1  0  0  0  0
 34 36  2  0  0  0  0
 35 37  1  0  0  0  0
 37 40  1  0  0  0  0
 38 39  1  0  0  0  0
 39 40  1  0  0  0  0
 40 41  1  0  0  0  0
 41 42  1  0  0  0  0
 42 38  1  0  0  0  0
M  END
> <From>
www.bindingDB.org

> <BindingDB Reactant_set_id>
1155213

> <Ligand InChI>
InChI=1S/C29H37N5O6S2/c1-18(2)40-28(36)32-20-10-8-19(9-11-20)26-31-16-24(41-26)23-13-12-21(15-25(23)42(37,38)34-29(3,4)5)33-27(35)39-17-22-7-6-14-30-22/h8-13,15-16,18,22,30,34H,6-7,14,17H2,1-5H3,(H,32,36)(H,33,35)

> <Ligand InChI Key>
BDLDMLUYQKWOBB-UHFFFAOYSA-N

> <BindingDB MonomerID>
546364

> <BindingDB Ligand Name>
US11291655, No B7

> <Target Name>
DNA repair protein RAD51 homolog 1

> <Target Source Organism According to Curator or DataSource>
Homo sapiens

> <Ki (nM)>


> <IC50 (nM)>


> <Kd (nM)>


> <EC50 (nM)>
<5000

> <kon (M-1-s-1)>


> <koff (s-1)>


> <pH>


> <Temp C>


> <Curation/DataSource>
US Patent

> <Article DOI>


> <BindingDB Entry DOI>
10.7270/Q2NG4TV0

> <PMID>


> <PubChem AID>
aid1806421

> <Patent Number>
US11291655

> <Authors>
Castro, AC; McComas, CC; Vacca, J

> <Date of publication>
4/5/2022

> <Date in BindingDB>
7/21/2022

> <Institution>
Cyteir Therapeutics, Inc.

> <Link to Ligand in BindingDB>
http://www.bindingdb.org/bind/chemsearch/marvin/MolStructure.jsp?monomerid=546364

> <Link to Ligand-Target Pair in BindingDB>
http://www.bindingdb.org/jsp/dbsearch/PrimarySearch_ki.jsp?energyterm=kJ/mole&tag=pol&polymerid=4676&target=DNA+repair+protein+RAD51+homolog+1&column=ki&startPg=0&Increment=50&submit=Search

> <Link to Ligand-Target Pair in BindingDB>
http://www.bindingdb.org/jsp/dbsearch/PrimarySearch_ki.jsp?energyterm=kJ/mole&tag=r21&monomerid=546364&enzyme=DNA+repair+protein+RAD51+homolog+1&column=ki&startPg=0&Increment=50&submit=Search

> <Ligand HET ID in PDB>


> <PDB ID(s) for Ligand-Target Complex>


> <PubChem CID of Ligand>
137411755

> <PubChem SID of Ligand>
469681060

> <ChEBI ID of Ligand>


> <ChEMBL ID of Ligand>


> <DrugBank ID of Ligand>


> <IUPHAR_GRAC ID of Ligand>


> <KEGG ID of Ligand>


> <ZINC ID of Ligand>


> <Number of Protein Chains in Target (bigger than 1 implies a multichain complex)>
1

> <BindingDB Target Chain Sequence>
MAMQMQLEANADTSVEEESFGPQPISRLEQCGINANDVKKLEEAGFHTVEAVAYAPKKELINIKGISEAKADKILAEAAKLVPMGFTTATEFHQRRSEIIQITTGSKELDKLLQGGIETGSITEMFGEFRTGKTQICHTLAVTCQLPIDRGGGEGKAMYIDTEGTFRPERLLAVAERYGLSGSDVLDNVAYARAFNTDHQTQLLYQASAMMVESRYALLIVDSATALYRTDYSGRGELSARQMHLARFLRMLLRLADEFGVAVVITNQVVAQVDGAAMFAADPKKPIGGNIIAHASTTRLYLRKGRGETRICKIYDSPCLPEAEAMFAINADGVGDAKD

> <PDB ID(s) of Target Chain>
1N0W,5JZC,5NP7,5NWL,8BQ2,8BR2,8BSC

> <UniProt (SwissProt) Recommended Name of Target Chain>
DNA repair protein RAD51 homolog 1

> <UniProt (SwissProt) Entry Name of Target Chain>
RAD51_HUMAN

> <UniProt (SwissProt) Primary ID of Target Chain>
Q06609

> <UniProt (SwissProt) Secondary ID(s) of Target Chain>
B0FXP0 B2R8T6 Q6FHX9 Q6ZNA8 Q9BV60

> <UniProt (SwissProt) Alternative ID(s) of Target Chain>


> <UniProt (TrEMBL) Submitted Name of Target Chain>


> <UniProt (TrEMBL) Entry Name of Target Chain>


> <UniProt (TrEMBL) Primary ID of Target Chain>


> <UniProt (TrEMBL) Secondary ID(s) of Target Chain>


> <UniProt (TrEMBL) Alternative ID(s) of Target Chain>


$$$$
00224001.cdx
  Mrv0541 07212217012D          

 44 47  0  0  0  0            999 V2000
    1.5792    1.5606    0.0000 N   0  0  0  0  0  0  0  0  0  0  0  0
    0.7542    1.5606    0.0000 C   0  0  0  0  0  0  0  0  0  0  0  0
    0.4993    0.7759    0.0000 C   0  0  0  0  0  0  0  0  0  0  0  0
    1.1667    0.2910    0.0000 S   0  0  0  0  0  0  0  0  0  0  0  0
    1.8342    0.7759    0.0000 C   0  0  0  0  0  0  0  0  0  0  0  0
   -0.2976    0.5624    0.0000 C   0  0  0  0  0  0  0  0  0  0  0  0
   -0.8810    1.1458    0.0000 C   0  0  0  0  0  0  0  0  0  0  0  0
   -1.6779    0.9323    0.0000 C   0  0  0  0  0  0  0  0  0  0  0  0
   -1.8914    0.1354    0.0000 C   0  0  0  0  0  0  0  0  0  0  0  0
   -1.3080   -0.4480    0.0000 C   0  0  0  0  0  0  0  0  0  0  0  0
   -0.5111   -0.2345    0.0000 C   0  0  0  0  0  0  0  0  0  0  0  0
    2.6311    0.5624    0.0000 C   0  0  0  0  0  0  0  0  0  0  0  0
    2.8446   -0.2345    0.0000 C   0  0  0  0  0  0  0  0  0  0  0  0
    3.6415   -0.4480    0.0000 C   0  0  0  0  0  0  0  0  0  0  0  0
    4.2248    0.1354    0.0000 C   0  0  0  0  0  0  0  0  0  0  0  0
    4.0113    0.9323    0.0000 C   0  0  0  0  0  0  0  0  0  0  0  0
    3.2144    1.1458    0.0000 C   0  0  0  0  0  0  0  0  0  0  0  0
    5.0217   -0.0782    0.0000 N   0  0  0  0  0  0  0  0  0  0  0  0
    5.2352   -0.8750    0.0000 C   0  0  0  0  0  0  0  0  0  0  0  0
    6.0321   -1.0886    0.0000 O   0  0  0  0  0  0  0  0  0  0  0  0
    4.6519   -1.4584    0.0000 O   0  0  0  0  0  0  0  0  0  0  0  0
    6.6155   -0.5052    0.0000 C   0  0  0  0  0  0  0  0  0  0  0  0
    7.4124   -0.7187    0.0000 C   0  0  0  0  0  0  0  0  0  0  0  0
    6.4020    0.2917    0.0000 C   0  0  0  0  0  0  0  0  0  0  0  0
    0.0722   -0.8178    0.0000 S   0  0  0  0  0  0  0  0  0  0  0  0
   -0.1413   -1.6147    0.0000 N   0  0  0  0  0  0  0  0  0  0  0  0
    0.7873   -1.2303    0.0000 O   0  0  0  0  0  0  0  0  0  0  0  0
    0.7873   -0.4053    0.0000 O   0  0  0  0  0  0  0  0  0  0  0  0
   -0.9382   -1.8282    0.0000 C   0  0  0  0  0  0  0  0  0  0  0  0
   -1.1517   -2.6251    0.0000 C   0  0  0  0  0  0  0  0  0  0  0  0
   -1.5215   -1.2449    0.0000 C   0  0  0  0  0  0  0  0  0  0  0  0
   -1.7351   -2.0418    0.0000 C   0  0  0  0  0  0  0  0  0  0  0  0
   -2.6883   -0.0782    0.0000 N   0  0  0  0  0  0  0  0  0  0  0  0
   -3.2716    0.5052    0.0000 C   0  0  0  0  0  0  0  0  0  0  0  0
   -4.0685    0.2917    0.0000 O   0  0  0  0  0  0  0  0  0  0  0  0
   -3.0581    1.3021    0.0000 O   0  0  0  0  0  0  0  0  0  0  0  0
   -4.6519    0.8750    0.0000 C   0  0  0  0  0  0  0  0  0  0  0  0
   -5.4488    0.6615    0.0000 C   0  0  0  0  0  0  0  0  0  0  0  0
   -6.0321    1.2449    0.0000 C   0  0  0  0  0  0  0  0  0  0  0  0
   -5.8186    2.0418    0.0000 C   0  0  0  0  0  0  0  0  0  0  0  0
   -6.4020    2.6251    0.0000 C   0  0  0  0  0  0  0  0  0  0  0  0
   -7.1989    2.4116    0.0000 C   0  0  0  0  0  0  0  0  0  0  0  0
   -7.4124    1.6147    0.0000 C   0  0  0  0  0  0  0  0  0  0  0  0
   -6.8290    1.0314    0.0000 C   0  0  0  0  0  0  0  0  0  0  0  0
  1  2  4  0  0  0  0
  2  3  4  0  0  0  0
  3  4  4  0  0  0  0
  4  5  4  0  0  0  0
  5  1  4  0  0  0  0
  3  6  1  0  0  0  0
  6  7  4  0  0  0  0
  7  8  4  0  0  0  0
  8  9  4  0  0  0  0
  9 10  4  0  0  0  0
 10 11  4  0  0  0  0
 11  6  4  0  0  0  0
  5 12  1  0  0  0  0
 12 13  4  0  0  0  0
 13 14  4  0  0  0  0
 14 15  4  0  0  0  0
 15 16  4  0  0  0  0
 16 17  4  0  0  0  0
 17 12  4  0  0  0  0
  9 33  1  0  0  0  0
 15 18  1  0  0  0  0
 18 19  1  0  0  0  0
 19 20  1  0  0  0  0
 19 21  2  0  0  0  0
 20 22  1  0  0  0  0
 22 23  1  0  0  0  0
 22 24  1  0  0  0  0
 11 25  1  0  0  0  0
 25 26  1  0  0  0  0
 25 27  2  0  0  0  0
 28 25  2  0  0  0  0
 26 29  1  0  0  0  0
 29 30  1  0  0  0  0
 29 31  1  0  0  0  0
 29 32  1  0  0  0  0
 33 34  1  0  0  0  0
 34 35  1  0  0  0  0
 34 36  2  0  0  0  0
 35 37  1  0  0  0  0
 37 38  1  0  0  0  0
 38 39  1  0  0  0  0
 39 40  4  0  0  0  0
 40 41  4  0  0  0  0
 41 42  4  0  0  0  0
 42 43  4  0  0  0  0
 43 44  4  0  0  0  0
 44 39  4  0  0  0  0
M  END
> <From>
www.bindingDB.org

> <BindingDB Reactant_set_id>
1155214

> <Ligand InChI>
InChI=1S/C32H36N4O6S2/c1-21(2)42-31(38)34-24-13-11-23(12-14-24)29-33-20-27(43-29)26-16-15-25(19-28(26)44(39,40)36-32(3,4)5)35-30(37)41-18-17-22-9-7-6-8-10-22/h6-16,19-21,36H,17-18H2,1-5H3,(H,34,38)(H,35,37)

> <Ligand InChI Key>
XGQHQXJQNCADBL-UHFFFAOYSA-N

> <BindingDB MonomerID>
546365

> <BindingDB Ligand Name>
US11291655, No B8

> <Target Name>
DNA repair protein RAD51 homolog 1

> <Target Source Organism According to Curator or DataSource>
Homo sapiens

> <Ki (nM)>


> <IC50 (nM)>


> <Kd (nM)>


> <EC50 (nM)>
<1000

> <kon (M-1-s-1)>


> <koff (s-1)>


> <pH>


> <Temp C>


> <Curation/DataSource>
US Patent

> <Article DOI>


> <BindingDB Entry DOI>
10.7270/Q2NG4TV0

> <PMID>


> <PubChem AID>
aid1806421

> <Patent Number>
US11291655

> <Authors>
Castro, AC; McComas, CC; Vacca, J

> <Date of publication>
4/5/2022

> <Date in BindingDB>
7/21/2022

> <Institution>
Cyteir Therapeutics, Inc.

> <Link to Ligand in BindingDB>
http://www.bindingdb.org/bind/chemsearch/marvin/MolStructure.jsp?monomerid=546365

> <Link to Ligand-Target Pair in BindingDB>
http://www.bindingdb.org/jsp/dbsearch/PrimarySearch_ki.jsp?energyterm=kJ/mole&tag=pol&polymerid=4676&target=DNA+repair+protein+RAD51+homolog+1&column=ki&startPg=0&Increment=50&submit=Search

> <Link to Ligand-Target Pair in BindingDB>
http://www.bindingdb.org/jsp/dbsearch/PrimarySearch_ki.jsp?energyterm=kJ/mole&tag=r21&monomerid=546365&enzyme=DNA+repair+protein+RAD51+homolog+1&column=ki&startPg=0&Increment=50&submit=Search

> <Ligand HET ID in PDB>


> <PDB ID(s) for Ligand-Target Complex>


> <PubChem CID of Ligand>
137411679

> <PubChem SID of Ligand>
469681061

> <ChEBI ID of Ligand>


> <ChEMBL ID of Ligand>


> <DrugBank ID of Ligand>


> <IUPHAR_GRAC ID of Ligand>


> <KEGG ID of Ligand>


> <ZINC ID of Ligand>


> <Number of Protein Chains in Target (bigger than 1 implies a multichain complex)>
1

> <BindingDB Target Chain Sequence>
MAMQMQLEANADTSVEEESFGPQPISRLEQCGINANDVKKLEEAGFHTVEAVAYAPKKELINIKGISEAKADKILAEAAKLVPMGFTTATEFHQRRSEIIQITTGSKELDKLLQGGIETGSITEMFGEFRTGKTQICHTLAVTCQLPIDRGGGEGKAMYIDTEGTFRPERLLAVAERYGLSGSDVLDNVAYARAFNTDHQTQLLYQASAMMVESRYALLIVDSATALYRTDYSGRGELSARQMHLARFLRMLLRLADEFGVAVVITNQVVAQVDGAAMFAADPKKPIGGNIIAHASTTRLYLRKGRGETRICKIYDSPCLPEAEAMFAINADGVGDAKD

> <PDB ID(s) of Target Chain>
1N0W,5JZC,5NP7,5NWL,8BQ2,8BR2,8BSC

> <UniProt (SwissProt) Recommended Name of Target Chain>
DNA repair protein RAD51 homolog 1

> <UniProt (SwissProt) Entry Name of Target Chain>
RAD51_HUMAN

> <UniProt (SwissProt) Primary ID of Target Chain>
Q06609

> <UniProt (SwissProt) Secondary ID(s) of Target Chain>
B0FXP0 B2R8T6 Q6FHX9 Q6ZNA8 Q9BV60

> <UniProt (SwissProt) Alternative ID(s) of Target Chain>


> <UniProt (TrEMBL) Submitted Name of Target Chain>


> <UniProt (TrEMBL) Entry Name of Target Chain>


> <UniProt (TrEMBL) Primary ID of Target Chain>


> <UniProt (TrEMBL) Secondary ID(s) of Target Chain>


> <UniProt (TrEMBL) Alternative ID(s) of Target Chain>


$$$$
00225001.cdx
  Mrv0541 07212217012D          

 43 46  0  0  0  0            999 V2000
    1.3943    2.0929    0.0000 N   0  0  0  0  0  0  0  0  0  0  0  0
    0.5693    2.0929    0.0000 C   0  0  0  0  0  0  0  0  0  0  0  0
    0.3144    1.3082    0.0000 C   0  0  0  0  0  0  0  0  0  0  0  0
    0.9818    0.8233    0.0000 S   0  0  0  0  0  0  0  0  0  0  0  0
    1.6492    1.3082    0.0000 C   0  0  0  0  0  0  0  0  0  0  0  0
   -0.4825    1.0947    0.0000 C   0  0  0  0  0  0  0  0  0  0  0  0
   -1.0659    1.6781    0.0000 C   0  0  0  0  0  0  0  0  0  0  0  0
   -1.8628    1.4645    0.0000 C   0  0  0  0  0  0  0  0  0  0  0  0
   -2.0763    0.6677    0.0000 C   0  0  0  0  0  0  0  0  0  0  0  0
   -1.4929    0.0843    0.0000 C   0  0  0  0  0  0  0  0  0  0  0  0
   -0.6960    0.2978    0.0000 C   0  0  0  0  0  0  0  0  0  0  0  0
    2.4461    1.0947    0.0000 C   0  0  0  0  0  0  0  0  0  0  0  0
    2.6597    0.2978    0.0000 C   0  0  0  0  0  0  0  0  0  0  0  0
    3.4565    0.0843    0.0000 C   0  0  0  0  0  0  0  0  0  0  0  0
    4.0399    0.6677    0.0000 C   0  0  0  0  0  0  0  0  0  0  0  0
    3.8264    1.4645    0.0000 C   0  0  0  0  0  0  0  0  0  0  0  0
    3.0295    1.6781    0.0000 C   0  0  0  0  0  0  0  0  0  0  0  0
    4.8368    0.4541    0.0000 N   0  0  0  0  0  0  0  0  0  0  0  0
    5.0503   -0.3428    0.0000 C   0  0  0  0  0  0  0  0  0  0  0  0
    5.8472   -0.5563    0.0000 O   0  0  0  0  0  0  0  0  0  0  0  0
    4.4670   -0.9261    0.0000 O   0  0  0  0  0  0  0  0  0  0  0  0
    6.4306    0.0271    0.0000 C   0  0  0  0  0  0  0  0  0  0  0  0
    7.2275   -0.1865    0.0000 C   0  0  0  0  0  0  0  0  0  0  0  0
    6.2171    0.8240    0.0000 C   0  0  0  0  0  0  0  0  0  0  0  0
   -0.1127   -0.2855    0.0000 S   0  0  0  0  0  0  0  0  0  0  0  0
   -0.3262   -1.0824    0.0000 N   0  0  0  0  0  0  0  0  0  0  0  0
    0.6024   -0.6980    0.0000 O   0  0  0  0  0  0  0  0  0  0  0  0
    0.6024    0.1270    0.0000 O   0  0  0  0  0  0  0  0  0  0  0  0
   -1.1231   -1.2960    0.0000 C   0  0  0  0  0  0  0  0  0  0  0  0
   -1.3366   -2.0929    0.0000 C   0  0  0  0  0  0  0  0  0  0  0  0
   -1.7065   -0.7126    0.0000 C   0  0  0  0  0  0  0  0  0  0  0  0
   -1.9200   -1.5095    0.0000 C   0  0  0  0  0  0  0  0  0  0  0  0
   -2.8732    0.4541    0.0000 N   0  0  0  0  0  0  0  0  0  0  0  0
   -3.4566    1.0375    0.0000 C   0  0  0  0  0  0  0  0  0  0  0  0
   -4.2534    0.8240    0.0000 O   0  0  0  0  0  0  0  0  0  0  0  0
   -3.2430    1.8344    0.0000 O   0  0  0  0  0  0  0  0  0  0  0  0
   -4.8368    1.4073    0.0000 C   0  0  0  0  0  0  0  0  0  0  0  0
   -5.6337    1.1938    0.0000 C   0  0  0  0  0  0  0  0  0  0  0  0
   -6.2171    1.7772    0.0000 C   0  0  0  0  0  0  0  0  0  0  0  0
   -7.0139    1.5636    0.0000 N   0  0  0  0  0  0  0  0  0  0  0  0
   -7.2275    0.7668    0.0000 C   0  0  0  0  0  0  0  0  0  0  0  0
   -6.6441    0.1834    0.0000 C   0  0  0  0  0  0  0  0  0  0  0  0
   -5.8472    0.3969    0.0000 C   0  0  0  0  0  0  0  0  0  0  0  0
  1  2  4  0  0  0  0
  2  3  4  0  0  0  0
  3  4  4  0  0  0  0
  4  5  4  0  0  0  0
  5  1  4  0  0  0  0
  3  6  1  0  0  0  0
  6  7  4  0  0  0  0
  7  8  4  0  0  0  0
  8  9  4  0  0  0  0
  9 10  4  0  0  0  0
 10 11  4  0  0  0  0
 11  6  4  0  0  0  0
  5 12  1  0  0  0  0
 12 13  4  0  0  0  0
 13 14  4  0  0  0  0
 14 15  4  0  0  0  0
 15 16  4  0  0  0  0
 16 17  4  0  0  0  0
 17 12  4  0  0  0  0
  9 33  1  0  0  0  0
 15 18  1  0  0  0  0
 18 19  1  0  0  0  0
 19 20  1  0  0  0  0
 19 21  2  0  0  0  0
 20 22  1  0  0  0  0
 22 23  1  0  0  0  0
 22 24  1  0  0  0  0
 11 25  1  0  0  0  0
 25 26  1  0  0  0  0
 25 27  2  0  0  0  0
 28 25  2  0  0  0  0
 26 29  1  0  0  0  0
 29 30  1  0  0  0  0
 29 31  1  0  0  0  0
 29 32  1  0  0  0  0
 33 34  1  0  0  0  0
 34 35  1  0  0  0  0
 34 36  2  0  0  0  0
 35 37  1  0  0  0  0
 37 38  1  0  0  0  0
 38 39  4  0  0  0  0
 39 40  4  0  0  0  0
 40 41  4  0  0  0  0
 41 42  4  0  0  0  0
 42 43  4  0  0  0  0
 43 38  4  0  0  0  0
M  END
> <From>
www.bindingDB.org

> <BindingDB Reactant_set_id>
1155215

> <Ligand InChI>
InChI=1S/C30H33N5O6S2/c1-19(2)41-29(37)33-22-10-8-21(9-11-22)27-32-17-25(42-27)24-13-12-23(15-26(24)43(38,39)35-30(3,4)5)34-28(36)40-18-20-7-6-14-31-16-20/h6-17,19,35H,18H2,1-5H3,(H,33,37)(H,34,36)

> <Ligand InChI Key>
KAPNRHAIHJWXBX-UHFFFAOYSA-N

> <BindingDB MonomerID>
546366

> <BindingDB Ligand Name>
US11291655, No B9

> <Target Name>
DNA repair protein RAD51 homolog 1

> <Target Source Organism According to Curator or DataSource>
Homo sapiens

> <Ki (nM)>


> <IC50 (nM)>


> <Kd (nM)>


> <EC50 (nM)>
<1000

> <kon (M-1-s-1)>


> <koff (s-1)>


> <pH>


> <Temp C>


> <Curation/DataSource>
US Patent

> <Article DOI>


> <BindingDB Entry DOI>
10.7270/Q2NG4TV0

> <PMID>


> <PubChem AID>
aid1806421

> <Patent Number>
US11291655

> <Authors>
Castro, AC; McComas, CC; Vacca, J

> <Date of publication>
4/5/2022

> <Date in BindingDB>
7/21/2022

> <Institution>
Cyteir Therapeutics, Inc.

> <Link to Ligand in BindingDB>
http://www.bindingdb.org/bind/chemsearch/marvin/MolStructure.jsp?monomerid=546366

> <Link to Ligand-Target Pair in BindingDB>
http://www.bindingdb.org/jsp/dbsearch/PrimarySearch_ki.jsp?energyterm=kJ/mole&tag=pol&polymerid=4676&target=DNA+repair+protein+RAD51+homolog+1&column=ki&startPg=0&Increment=50&submit=Search

> <Link to Ligand-Target Pair in BindingDB>
http://www.bindingdb.org/jsp/dbsearch/PrimarySearch_ki.jsp?energyterm=kJ/mole&tag=r21&monomerid=546366&enzyme=DNA+repair+protein+RAD51+homolog+1&column=ki&startPg=0&Increment=50&submit=Search

> <Ligand HET ID in PDB>


> <PDB ID(s) for Ligand-Target Complex>


> <PubChem CID of Ligand>
137411749

> <PubChem SID of Ligand>
469681062

> <ChEBI ID of Ligand>


> <ChEMBL ID of Ligand>


> <DrugBank ID of Ligand>


> <IUPHAR_GRAC ID of Ligand>


> <KEGG ID of Ligand>


> <ZINC ID of Ligand>


> <Number of Protein Chains in Target (bigger than 1 implies a multichain complex)>
1

> <BindingDB Target Chain Sequence>
MAMQMQLEANADTSVEEESFGPQPISRLEQCGINANDVKKLEEAGFHTVEAVAYAPKKELINIKGISEAKADKILAEAAKLVPMGFTTATEFHQRRSEIIQITTGSKELDKLLQGGIETGSITEMFGEFRTGKTQICHTLAVTCQLPIDRGGGEGKAMYIDTEGTFRPERLLAVAERYGLSGSDVLDNVAYARAFNTDHQTQLLYQASAMMVESRYALLIVDSATALYRTDYSGRGELSARQMHLARFLRMLLRLADEFGVAVVITNQVVAQVDGAAMFAADPKKPIGGNIIAHASTTRLYLRKGRGETRICKIYDSPCLPEAEAMFAINADGVGDAKD

> <PDB ID(s) of Target Chain>
1N0W,5JZC,5NP7,5NWL,8BQ2,8BR2,8BSC

> <UniProt (SwissProt) Recommended Name of Target Chain>
DNA repair protein RAD51 homolog 1

> <UniProt (SwissProt) Entry Name of Target Chain>
RAD51_HUMAN

> <UniProt (SwissProt) Primary ID of Target Chain>
Q06609

> <UniProt (SwissProt) Secondary ID(s) of Target Chain>
B0FXP0 B2R8T6 Q6FHX9 Q6ZNA8 Q9BV60

> <UniProt (SwissProt) Alternative ID(s) of Target Chain>


> <UniProt (TrEMBL) Submitted Name of Target Chain>


> <UniProt (TrEMBL) Entry Name of Target Chain>


> <UniProt (TrEMBL) Primary ID of Target Chain>


> <UniProt (TrEMBL) Secondary ID(s) of Target Chain>


> <UniProt (TrEMBL) Alternative ID(s) of Target Chain>


$$$$
00226001.cdx
  Mrv0541 07212217012D          

 44 47  0  0  0  0            999 V2000
    1.3943    2.0372    0.0000 N   0  0  0  0  0  0  0  0  0  0  0  0
    0.5693    2.0372    0.0000 C   0  0  0  0  0  0  0  0  0  0  0  0
    0.3144    1.2525    0.0000 C   0  0  0  0  0  0  0  0  0  0  0  0
    0.9818    0.7676    0.0000 S   0  0  0  0  0  0  0  0  0  0  0  0
    1.6492    1.2525    0.0000 C   0  0  0  0  0  0  0  0  0  0  0  0
   -0.4825    1.0390    0.0000 C   0  0  0  0  0  0  0  0  0  0  0  0
   -1.0659    1.6224    0.0000 C   0  0  0  0  0  0  0  0  0  0  0  0
   -1.8628    1.4089    0.0000 C   0  0  0  0  0  0  0  0  0  0  0  0
   -2.0763    0.6120    0.0000 C   0  0  0  0  0  0  0  0  0  0  0  0
   -1.4929    0.0286    0.0000 C   0  0  0  0  0  0  0  0  0  0  0  0
   -0.6960    0.2421    0.0000 C   0  0  0  0  0  0  0  0  0  0  0  0
    2.4461    1.0390    0.0000 C   0  0  0  0  0  0  0  0  0  0  0  0
    2.6597    0.2421    0.0000 C   0  0  0  0  0  0  0  0  0  0  0  0
    3.4565    0.0286    0.0000 C   0  0  0  0  0  0  0  0  0  0  0  0
    4.0399    0.6120    0.0000 C   0  0  0  0  0  0  0  0  0  0  0  0
    3.8264    1.4089    0.0000 C   0  0  0  0  0  0  0  0  0  0  0  0
    3.0295    1.6224    0.0000 C   0  0  0  0  0  0  0  0  0  0  0  0
    4.8368    0.3984    0.0000 N   0  0  0  0  0  0  0  0  0  0  0  0
    5.0503   -0.3984    0.0000 C   0  0  0  0  0  0  0  0  0  0  0  0
    5.8472   -0.6120    0.0000 O   0  0  0  0  0  0  0  0  0  0  0  0
    4.4670   -0.9818    0.0000 O   0  0  0  0  0  0  0  0  0  0  0  0
    6.4306   -0.0286    0.0000 C   0  0  0  0  0  0  0  0  0  0  0  0
    7.2275   -0.2421    0.0000 C   0  0  0  0  0  0  0  0  0  0  0  0
    6.2171    0.7683    0.0000 C   0  0  0  0  0  0  0  0  0  0  0  0
   -0.1127   -0.3412    0.0000 S   0  0  0  0  0  0  0  0  0  0  0  0
   -0.3262   -1.1381    0.0000 N   0  0  0  0  0  0  0  0  0  0  0  0
    0.6024   -0.7537    0.0000 O   0  0  0  0  0  0  0  0  0  0  0  0
    0.6024    0.0713    0.0000 O   0  0  0  0  0  0  0  0  0  0  0  0
   -1.1231   -1.3516    0.0000 C   0  0  0  0  0  0  0  0  0  0  0  0
   -1.3366   -2.1485    0.0000 C   0  0  0  0  0  0  0  0  0  0  0  0
   -1.7065   -0.7683    0.0000 C   0  0  0  0  0  0  0  0  0  0  0  0
   -1.9200   -1.5652    0.0000 C   0  0  0  0  0  0  0  0  0  0  0  0
   -2.8732    0.3984    0.0000 N   0  0  0  0  0  0  0  0  0  0  0  0
   -3.4566    0.9818    0.0000 C   0  0  0  0  0  0  0  0  0  0  0  0
   -4.2534    0.7683    0.0000 N   0  0  0  0  0  0  0  0  0  0  0  0
   -3.2430    1.7787    0.0000 O   0  0  0  0  0  0  0  0  0  0  0  0
   -4.8368    1.3516    0.0000 C   0  0  0  0  0  0  0  0  0  0  0  0
   -5.6337    1.1381    0.0000 C   0  0  0  0  0  0  0  0  0  0  0  0
   -6.2171    1.7215    0.0000 C   0  0  0  0  0  0  0  0  0  0  0  0
   -7.0139    1.5080    0.0000 C   0  0  0  0  0  0  0  0  0  0  0  0
   -7.2275    0.7111    0.0000 C   0  0  0  0  0  0  0  0  0  0  0  0
   -6.6441    0.1277    0.0000 C   0  0  0  0  0  0  0  0  0  0  0  0
   -5.8472    0.3412    0.0000 C   0  0  0  0  0  0  0  0  0  0  0  0
   -4.6233    2.1485    0.0000 C   0  0  0  0  0  0  0  0  0  0  0  0
  1  2  4  0  0  0  0
  2  3  4  0  0  0  0
  3  4  4  0  0  0  0
  4  5  4  0  0  0  0
  5  1  4  0  0  0  0
  3  6  1  0  0  0  0
  6  7  4  0  0  0  0
  7  8  4  0  0  0  0
  8  9  4  0  0  0  0
  9 10  4  0  0  0  0
 10 11  4  0  0  0  0
 11  6  4  0  0  0  0
  5 12  1  0  0  0  0
 12 13  4  0  0  0  0
 13 14  4  0  0  0  0
 14 15  4  0  0  0  0
 15 16  4  0  0  0  0
 16 17  4  0  0  0  0
 17 12  4  0  0  0  0
  9 33  1  0  0  0  0
 15 18  1  0  0  0  0
 18 19  1  0  0  0  0
 19 20  1  0  0  0  0
 19 21  2  0  0  0  0
 20 22  1  0  0  0  0
 22 23  1  0  0  0  0
 22 24  1  0  0  0  0
 11 25  1  0  0  0  0
 25 26  1  0  0  0  0
 25 27  2  0  0  0  0
 28 25  2  0  0  0  0
 26 29  1  0  0  0  0
 29 30  1  0  0  0  0
 29 31  1  0  0  0  0
 29 32  1  0  0  0  0
 33 34  1  0  0  0  0
 34 35  1  0  0  0  0
 34 36  2  0  0  0  0
 35 37  1  0  0  0  0
 37 38  1  0  0  0  0
 38 39  4  0  0  0  0
 39 40  4  0  0  0  0
 40 41  4  0  0  0  0
 41 42  4  0  0  0  0
 42 43  4  0  0  0  0
 43 38  4  0  0  0  0
 37 44  1  0  0  0  0
M  END
> <From>
www.bindingDB.org

> <BindingDB Reactant_set_id>
1155216

> <Ligand InChI>
InChI=1S/C32H37N5O5S2/c1-20(2)42-31(39)36-24-14-12-23(13-15-24)29-33-19-27(43-29)26-17-16-25(18-28(26)44(40,41)37-32(4,5)6)35-30(38)34-21(3)22-10-8-7-9-11-22/h7-21,37H,1-6H3,(H,36,39)(H2,34,35,38)

> <Ligand InChI Key>
QODOMLHTRCPBPW-UHFFFAOYSA-N

> <BindingDB MonomerID>
546367

> <BindingDB Ligand Name>
US11291655, No C1

> <Target Name>
DNA repair protein RAD51 homolog 1

> <Target Source Organism According to Curator or DataSource>
Homo sapiens

> <Ki (nM)>


> <IC50 (nM)>


> <Kd (nM)>


> <EC50 (nM)>
<1000

> <kon (M-1-s-1)>


> <koff (s-1)>


> <pH>


> <Temp C>


> <Curation/DataSource>
US Patent

> <Article DOI>


> <BindingDB Entry DOI>
10.7270/Q2NG4TV0

> <PMID>


> <PubChem AID>
aid1806421

> <Patent Number>
US11291655

> <Authors>
Castro, AC; McComas, CC; Vacca, J

> <Date of publication>
4/5/2022

> <Date in BindingDB>
7/21/2022

> <Institution>
Cyteir Therapeutics, Inc.

> <Link to Ligand in BindingDB>
http://www.bindingdb.org/bind/chemsearch/marvin/MolStructure.jsp?monomerid=546367

> <Link to Ligand-Target Pair in BindingDB>
http://www.bindingdb.org/jsp/dbsearch/PrimarySearch_ki.jsp?energyterm=kJ/mole&tag=pol&polymerid=4676&target=DNA+repair+protein+RAD51+homolog+1&column=ki&startPg=0&Increment=50&submit=Search

> <Link to Ligand-Target Pair in BindingDB>
http://www.bindingdb.org/jsp/dbsearch/PrimarySearch_ki.jsp?energyterm=kJ/mole&tag=r21&monomerid=546367&enzyme=DNA+repair+protein+RAD51+homolog+1&column=ki&startPg=0&Increment=50&submit=Search

> <Ligand HET ID in PDB>


> <PDB ID(s) for Ligand-Target Complex>


> <PubChem CID of Ligand>
137411830

> <PubChem SID of Ligand>
469681063

> <ChEBI ID of Ligand>


> <ChEMBL ID of Ligand>


> <DrugBank ID of Ligand>


> <IUPHAR_GRAC ID of Ligand>


> <KEGG ID of Ligand>


> <ZINC ID of Ligand>


> <Number of Protein Chains in Target (bigger than 1 implies a multichain complex)>
1

> <BindingDB Target Chain Sequence>
MAMQMQLEANADTSVEEESFGPQPISRLEQCGINANDVKKLEEAGFHTVEAVAYAPKKELINIKGISEAKADKILAEAAKLVPMGFTTATEFHQRRSEIIQITTGSKELDKLLQGGIETGSITEMFGEFRTGKTQICHTLAVTCQLPIDRGGGEGKAMYIDTEGTFRPERLLAVAERYGLSGSDVLDNVAYARAFNTDHQTQLLYQASAMMVESRYALLIVDSATALYRTDYSGRGELSARQMHLARFLRMLLRLADEFGVAVVITNQVVAQVDGAAMFAADPKKPIGGNIIAHASTTRLYLRKGRGETRICKIYDSPCLPEAEAMFAINADGVGDAKD

> <PDB ID(s) of Target Chain>
1N0W,5JZC,5NP7,5NWL,8BQ2,8BR2,8BSC

> <UniProt (SwissProt) Recommended Name of Target Chain>
DNA repair protein RAD51 homolog 1

> <UniProt (SwissProt) Entry Name of Target Chain>
RAD51_HUMAN

> <UniProt (SwissProt) Primary ID of Target Chain>
Q06609

> <UniProt (SwissProt) Secondary ID(s) of Target Chain>
B0FXP0 B2R8T6 Q6FHX9 Q6ZNA8 Q9BV60

> <UniProt (SwissProt) Alternative ID(s) of Target Chain>


> <UniProt (TrEMBL) Submitted Name of Target Chain>


> <UniProt (TrEMBL) Entry Name of Target Chain>


> <UniProt (TrEMBL) Primary ID of Target Chain>


> <UniProt (TrEMBL) Secondary ID(s) of Target Chain>


> <UniProt (TrEMBL) Alternative ID(s) of Target Chain>


$$$$
00227001.cdx
  Mrv0541 07212217012D          

 35 38  0  0  0  0            999 V2000
   -2.9522    0.2062    0.0000 C   0  0  0  0  0  0  0  0  0  0  0  0
   -2.9522   -0.6188    0.0000 C   0  0  0  0  0  0  0  0  0  0  0  0
   -2.2377   -1.0313    0.0000 C   0  0  0  0  0  0  0  0  0  0  0  0
   -1.5233   -0.6188    0.0000 C   0  0  0  0  0  0  0  0  0  0  0  0
   -1.5233    0.2062    0.0000 C   0  0  0  0  0  0  0  0  0  0  0  0
   -2.2377    0.6187    0.0000 C   0  0  0  0  0  0  0  0  0  0  0  0
   -3.6667   -1.0313    0.0000 N   0  0  0  0  0  0  0  0  0  0  0  0
   -4.3812   -0.6188    0.0000 C   0  0  0  0  0  0  0  0  0  0  0  0
   -5.0956   -1.0313    0.0000 C   0  0  0  0  0  0  0  0  0  0  0  0
   -4.3812    0.2062    0.0000 O   0  0  0  0  0  0  0  0  0  0  0  0
   -0.8088   -1.0313    0.0000 S   0  0  0  0  0  0  0  0  0  0  0  0
   -0.0943   -1.4438    0.0000 N   0  0  0  0  0  0  0  0  0  0  0  0
   -0.3963   -0.3168    0.0000 O   0  0  0  0  0  0  0  0  0  0  0  0
   -1.2213   -1.7457    0.0000 O   0  0  0  0  0  0  0  0  0  0  0  0
    0.6201   -1.0313    0.0000 C   0  0  0  0  0  0  0  0  0  0  0  0
    1.3346   -1.4438    0.0000 C   0  0  0  0  0  0  0  0  0  0  0  0
    0.6201   -0.2063    0.0000 C   0  0  0  0  0  0  0  0  0  0  0  0
    1.3346   -0.6188    0.0000 C   0  0  0  0  0  0  0  0  0  0  0  0
   -0.8088    1.4437    0.0000 C   0  0  0  0  0  0  0  0  0  0  0  0
   -0.8088    0.6187    0.0000 C   0  0  0  0  0  0  0  0  0  0  0  0
   -0.0242    0.3638    0.0000 S   0  0  0  0  0  0  0  0  0  0  0  0
    0.4607    1.0312    0.0000 C   0  0  0  0  0  0  0  0  0  0  0  0
   -0.0242    1.6987    0.0000 N   0  0  0  0  0  0  0  0  0  0  0  0
    1.2857    1.0312    0.0000 C   0  0  0  0  0  0  0  0  0  0  0  0
    1.6982    0.3168    0.0000 C   0  0  0  0  0  0  0  0  0  0  0  0
    2.5232    0.3168    0.0000 C   0  0  0  0  0  0  0  0  0  0  0  0
    2.9357    1.0312    0.0000 C   0  0  0  0  0  0  0  0  0  0  0  0
    2.5232    1.7457    0.0000 C   0  0  0  0  0  0  0  0  0  0  0  0
    1.6982    1.7457    0.0000 C   0  0  0  0  0  0  0  0  0  0  0  0
    4.0157    0.2466    0.0000 C   0  0  0  0  0  0  0  0  0  0  0  0
    4.8407    0.2466    0.0000 O   0  0  0  0  0  0  0  0  0  0  0  0
    5.0956    1.0312    0.0000 C   0  0  0  0  0  0  0  0  0  0  0  0
    4.4282    1.5162    0.0000 C   0  0  0  0  0  0  0  0  0  0  0  0
    3.7607    1.0312    0.0000 N   0  0  0  0  0  0  0  0  0  0  0  0
    3.6032   -0.4678    0.0000 O   0  0  0  0  0  0  0  0  0  0  0  0
  1  2  4  0  0  0  0
  2  3  4  0  0  0  0
  3  4  4  0  0  0  0
  4  5  4  0  0  0  0
  5  6  4  0  0  0  0
  6  1  4  0  0  0  0
  2  7  1  0  0  0  0
  7  8  1  0  0  0  0
  8  9  1  0  0  0  0
  8 10  2  0  0  0  0
  4 11  1  0  0  0  0
 11 12  1  0  0  0  0
 11 13  2  0  0  0  0
 11 14  2  0  0  0  0
 12 15  1  0  0  0  0
 15 16  1  0  0  0  0
 15 17  1  0  0  0  0
 15 18  1  0  0  0  0
  5 20  1  0  0  0  0
 19 20  4  0  0  0  0
 20 21  4  0  0  0  0
 21 22  4  0  0  0  0
 22 23  4  0  0  0  0
 23 19  4  0  0  0  0
 22 24  1  0  0  0  0
 24 25  4  0  0  0  0
 25 26  4  0  0  0  0
 26 27  4  0  0  0  0
 27 28  4  0  0  0  0
 28 29  4  0  0  0  0
 29 24  4  0  0  0  0
 27 34  1  0  0  0  0
 30 31  1  0  0  0  0
 31 32  1  0  0  0  0
 32 33  1  0  0  0  0
 33 34  1  0  0  0  0
 34 30  1  0  0  0  0
 30 35  2  0  0  0  0
M  END
> <From>
www.bindingDB.org

> <BindingDB Reactant_set_id>
1155217

> <Ligand InChI>
InChI=1S/C24H26N4O5S2/c1-15(29)26-17-7-10-19(21(13-17)35(31,32)27-24(2,3)4)20-14-25-22(34-20)16-5-8-18(9-6-16)28-11-12-33-23(28)30/h5-10,13-14,27H,11-12H2,1-4H3,(H,26,29)

> <Ligand InChI Key>
OJJOPOJFFZMMPT-UHFFFAOYSA-N

> <BindingDB MonomerID>
546368

> <BindingDB Ligand Name>
US11291655, No J19

> <Target Name>
DNA repair protein RAD51 homolog 1

> <Target Source Organism According to Curator or DataSource>
Homo sapiens

> <Ki (nM)>


> <IC50 (nM)>


> <Kd (nM)>


> <EC50 (nM)>
>10000

> <kon (M-1-s-1)>


> <koff (s-1)>


> <pH>


> <Temp C>


> <Curation/DataSource>
US Patent

> <Article DOI>


> <BindingDB Entry DOI>
10.7270/Q2NG4TV0

> <PMID>


> <PubChem AID>
aid1806421

> <Patent Number>
US11291655

> <Authors>
Castro, AC; McComas, CC; Vacca, J

> <Date of publication>
4/5/2022

> <Date in BindingDB>
7/21/2022

> <Institution>
Cyteir Therapeutics, Inc.

> <Link to Ligand in BindingDB>
http://www.bindingdb.org/bind/chemsearch/marvin/MolStructure.jsp?monomerid=546368

> <Link to Ligand-Target Pair in BindingDB>
http://www.bindingdb.org/jsp/dbsearch/PrimarySearch_ki.jsp?energyterm=kJ/mole&tag=pol&polymerid=4676&target=DNA+repair+protein+RAD51+homolog+1&column=ki&startPg=0&Increment=50&submit=Search

> <Link to Ligand-Target Pair in BindingDB>
http://www.bindingdb.org/jsp/dbsearch/PrimarySearch_ki.jsp?energyterm=kJ/mole&tag=r21&monomerid=546368&enzyme=DNA+repair+protein+RAD51+homolog+1&column=ki&startPg=0&Increment=50&submit=Search

> <Ligand HET ID in PDB>


> <PDB ID(s) for Ligand-Target Complex>


> <PubChem CID of Ligand>
137408577

> <PubChem SID of Ligand>
469681064

> <ChEBI ID of Ligand>


> <ChEMBL ID of Ligand>


> <DrugBank ID of Ligand>


> <IUPHAR_GRAC ID of Ligand>


> <KEGG ID of Ligand>


> <ZINC ID of Ligand>


> <Number of Protein Chains in Target (bigger than 1 implies a multichain complex)>
1

> <BindingDB Target Chain Sequence>
MAMQMQLEANADTSVEEESFGPQPISRLEQCGINANDVKKLEEAGFHTVEAVAYAPKKELINIKGISEAKADKILAEAAKLVPMGFTTATEFHQRRSEIIQITTGSKELDKLLQGGIETGSITEMFGEFRTGKTQICHTLAVTCQLPIDRGGGEGKAMYIDTEGTFRPERLLAVAERYGLSGSDVLDNVAYARAFNTDHQTQLLYQASAMMVESRYALLIVDSATALYRTDYSGRGELSARQMHLARFLRMLLRLADEFGVAVVITNQVVAQVDGAAMFAADPKKPIGGNIIAHASTTRLYLRKGRGETRICKIYDSPCLPEAEAMFAINADGVGDAKD

> <PDB ID(s) of Target Chain>
1N0W,5JZC,5NP7,5NWL,8BQ2,8BR2,8BSC

> <UniProt (SwissProt) Recommended Name of Target Chain>
DNA repair protein RAD51 homolog 1

> <UniProt (SwissProt) Entry Name of Target Chain>
RAD51_HUMAN

> <UniProt (SwissProt) Primary ID of Target Chain>
Q06609

> <UniProt (SwissProt) Secondary ID(s) of Target Chain>
B0FXP0 B2R8T6 Q6FHX9 Q6ZNA8 Q9BV60

> <UniProt (SwissProt) Alternative ID(s) of Target Chain>


> <UniProt (TrEMBL) Submitted Name of Target Chain>


> <UniProt (TrEMBL) Entry Name of Target Chain>


> <UniProt (TrEMBL) Primary ID of Target Chain>


> <UniProt (TrEMBL) Secondary ID(s) of Target Chain>


> <UniProt (TrEMBL) Alternative ID(s) of Target Chain>


$$$$
00228001.cdx
  Mrv0541 07212217012D          

 40 43  0  0  0  0            999 V2000
    0.5747    2.0929    0.0000 N   0  0  0  0  0  0  0  0  0  0  0  0
   -0.2503    2.0929    0.0000 C   0  0  0  0  0  0  0  0  0  0  0  0
   -0.5052    1.3082    0.0000 C   0  0  0  0  0  0  0  0  0  0  0  0
    0.1622    0.8233    0.0000 S   0  0  0  0  0  0  0  0  0  0  0  0
    0.8297    1.3082    0.0000 C   0  0  0  0  0  0  0  0  0  0  0  0
   -1.3021    1.0947    0.0000 C   0  0  0  0  0  0  0  0  0  0  0  0
   -1.8855    1.6781    0.0000 C   0  0  0  0  0  0  0  0  0  0  0  0
   -2.6823    1.4645    0.0000 C   0  0  0  0  0  0  0  0  0  0  0  0
   -2.8959    0.6677    0.0000 C   0  0  0  0  0  0  0  0  0  0  0  0
   -2.3125    0.0843    0.0000 C   0  0  0  0  0  0  0  0  0  0  0  0
   -1.5156    0.2978    0.0000 C   0  0  0  0  0  0  0  0  0  0  0  0
    1.6266    1.0947    0.0000 C   0  0  0  0  0  0  0  0  0  0  0  0
    1.8401    0.2978    0.0000 C   0  0  0  0  0  0  0  0  0  0  0  0
    2.6370    0.0843    0.0000 C   0  0  0  0  0  0  0  0  0  0  0  0
    3.2203    0.6677    0.0000 C   0  0  0  0  0  0  0  0  0  0  0  0
    3.0068    1.4645    0.0000 C   0  0  0  0  0  0  0  0  0  0  0  0
    2.2099    1.6781    0.0000 C   0  0  0  0  0  0  0  0  0  0  0  0
    4.0172    0.4541    0.0000 N   0  0  0  0  0  0  0  0  0  0  0  0
    4.2308   -0.3428    0.0000 C   0  0  0  0  0  0  0  0  0  0  0  0
    5.0276   -0.5563    0.0000 O   0  0  0  0  0  0  0  0  0  0  0  0
    3.6474   -0.9261    0.0000 O   0  0  0  0  0  0  0  0  0  0  0  0
    5.6110    0.0271    0.0000 C   0  0  0  0  0  0  0  0  0  0  0  0
    6.4079   -0.1865    0.0000 C   0  0  0  0  0  0  0  0  0  0  0  0
    5.3975    0.8240    0.0000 C   0  0  0  0  0  0  0  0  0  0  0  0
   -0.9323   -0.2855    0.0000 S   0  0  0  0  0  0  0  0  0  0  0  0
   -1.1458   -1.0824    0.0000 N   0  0  0  0  0  0  0  0  0  0  0  0
   -0.2172   -0.6980    0.0000 O   0  0  0  0  0  0  0  0  0  0  0  0
   -0.2172    0.1270    0.0000 O   0  0  0  0  0  0  0  0  0  0  0  0
   -1.9427   -1.2960    0.0000 C   0  0  0  0  0  0  0  0  0  0  0  0
   -2.1562   -2.0929    0.0000 C   0  0  0  0  0  0  0  0  0  0  0  0
   -2.5260   -0.7126    0.0000 C   0  0  0  0  0  0  0  0  0  0  0  0
   -2.7396   -1.5095    0.0000 C   0  0  0  0  0  0  0  0  0  0  0  0
   -3.6928    0.4541    0.0000 N   0  0  0  0  0  0  0  0  0  0  0  0
   -4.2761    1.0375    0.0000 C   0  0  0  0  0  0  0  0  0  0  0  0
   -4.0626    1.8344    0.0000 O   0  0  0  0  0  0  0  0  0  0  0  0
   -6.1530    0.0393    0.0000 C   0  0  0  0  0  0  0  0  0  0  0  0
   -5.3280    0.0393    0.0000 N   0  0  0  0  0  0  0  0  0  0  0  0
   -5.0730    0.8240    0.0000 C   0  0  1  0  0  0  0  0  0  0  0  0
   -5.7405    1.3089    0.0000 C   0  0  0  0  0  0  0  0  0  0  0  0
   -6.4079    0.8240    0.0000 C   0  0  0  0  0  0  0  0  0  0  0  0
  1  2  4  0  0  0  0
  2  3  4  0  0  0  0
  3  4  4  0  0  0  0
  4  5  4  0  0  0  0
  5  1  4  0  0  0  0
  3  6  1  0  0  0  0
  6  7  4  0  0  0  0
  7  8  4  0  0  0  0
  8  9  4  0  0  0  0
  9 10  4  0  0  0  0
 10 11  4  0  0  0  0
 11  6  4  0  0  0  0
  5 12  1  0  0  0  0
 12 13  4  0  0  0  0
 13 14  4  0  0  0  0
 14 15  4  0  0  0  0
 15 16  4  0  0  0  0
 16 17  4  0  0  0  0
 17 12  4  0  0  0  0
  9 33  1  0  0  0  0
 15 18  1  0  0  0  0
 18 19  1  0  0  0  0
 19 20  1  0  0  0  0
 19 21  2  0  0  0  0
 20 22  1  0  0  0  0
 22 23  1  0  0  0  0
 22 24  1  0  0  0  0
 11 25  1  0  0  0  0
 25 26  1  0  0  0  0
 25 27  2  0  0  0  0
 28 25  2  0  0  0  0
 26 29  1  0  0  0  0
 29 30  1  0  0  0  0
 29 31  1  0  0  0  0
 29 32  1  0  0  0  0
 33 34  1  0  0  0  0
 38 34  1  1  0  0  0
 34 35  2  0  0  0  0
 36 37  1  0  0  0  0
 38 37  1  0  0  0  0
 38 39  1  0  0  0  0
 39 40  1  0  0  0  0
 40 36  1  0  0  0  0
M  END
> <From>
www.bindingDB.org

> <BindingDB Reactant_set_id>
1155218

> <Ligand InChI>
InChI=1S/C28H35N5O5S2/c1-17(2)38-27(35)32-19-10-8-18(9-11-19)26-30-16-23(39-26)21-13-12-20(31-25(34)22-7-6-14-29-22)15-24(21)40(36,37)33-28(3,4)5/h8-13,15-17,22,29,33H,6-7,14H2,1-5H3,(H,31,34)(H,32,35)/t22-/m0/s1

> <Ligand InChI Key>
GFOOYGWZRJVAPI-QFIPXVFZSA-N

> <BindingDB MonomerID>
546369

> <BindingDB Ligand Name>
US11291655, No H1

> <Target Name>
DNA repair protein RAD51 homolog 1

> <Target Source Organism According to Curator or DataSource>
Homo sapiens

> <Ki (nM)>


> <IC50 (nM)>


> <Kd (nM)>


> <EC50 (nM)>
<5000

> <kon (M-1-s-1)>


> <koff (s-1)>


> <pH>


> <Temp C>


> <Curation/DataSource>
US Patent

> <Article DOI>


> <BindingDB Entry DOI>
10.7270/Q2NG4TV0

> <PMID>


> <PubChem AID>
aid1806421

> <Patent Number>
US11291655

> <Authors>
Castro, AC; McComas, CC; Vacca, J

> <Date of publication>
4/5/2022

> <Date in BindingDB>
7/21/2022

> <Institution>
Cyteir Therapeutics, Inc.

> <Link to Ligand in BindingDB>
http://www.bindingdb.org/bind/chemsearch/marvin/MolStructure.jsp?monomerid=546369

> <Link to Ligand-Target Pair in BindingDB>
http://www.bindingdb.org/jsp/dbsearch/PrimarySearch_ki.jsp?energyterm=kJ/mole&tag=pol&polymerid=4676&target=DNA+repair+protein+RAD51+homolog+1&column=ki&startPg=0&Increment=50&submit=Search

> <Link to Ligand-Target Pair in BindingDB>
http://www.bindingdb.org/jsp/dbsearch/PrimarySearch_ki.jsp?energyterm=kJ/mole&tag=r21&monomerid=546369&enzyme=DNA+repair+protein+RAD51+homolog+1&column=ki&startPg=0&Increment=50&submit=Search

> <Ligand HET ID in PDB>


> <PDB ID(s) for Ligand-Target Complex>


> <PubChem CID of Ligand>
137412047

> <PubChem SID of Ligand>
469681065

> <ChEBI ID of Ligand>


> <ChEMBL ID of Ligand>


> <DrugBank ID of Ligand>


> <IUPHAR_GRAC ID of Ligand>


> <KEGG ID of Ligand>


> <ZINC ID of Ligand>


> <Number of Protein Chains in Target (bigger than 1 implies a multichain complex)>
1

> <BindingDB Target Chain Sequence>
MAMQMQLEANADTSVEEESFGPQPISRLEQCGINANDVKKLEEAGFHTVEAVAYAPKKELINIKGISEAKADKILAEAAKLVPMGFTTATEFHQRRSEIIQITTGSKELDKLLQGGIETGSITEMFGEFRTGKTQICHTLAVTCQLPIDRGGGEGKAMYIDTEGTFRPERLLAVAERYGLSGSDVLDNVAYARAFNTDHQTQLLYQASAMMVESRYALLIVDSATALYRTDYSGRGELSARQMHLARFLRMLLRLADEFGVAVVITNQVVAQVDGAAMFAADPKKPIGGNIIAHASTTRLYLRKGRGETRICKIYDSPCLPEAEAMFAINADGVGDAKD

> <PDB ID(s) of Target Chain>
1N0W,5JZC,5NP7,5NWL,8BQ2,8BR2,8BSC

> <UniProt (SwissProt) Recommended Name of Target Chain>
DNA repair protein RAD51 homolog 1

> <UniProt (SwissProt) Entry Name of Target Chain>
RAD51_HUMAN

> <UniProt (SwissProt) Primary ID of Target Chain>
Q06609

> <UniProt (SwissProt) Secondary ID(s) of Target Chain>
B0FXP0 B2R8T6 Q6FHX9 Q6ZNA8 Q9BV60

> <UniProt (SwissProt) Alternative ID(s) of Target Chain>


> <UniProt (TrEMBL) Submitted Name of Target Chain>


> <UniProt (TrEMBL) Entry Name of Target Chain>


> <UniProt (TrEMBL) Primary ID of Target Chain>


> <UniProt (TrEMBL) Secondary ID(s) of Target Chain>


> <UniProt (TrEMBL) Alternative ID(s) of Target Chain>


$$$$
00229001.cdx
  Mrv0541 07212217012D          

 40 43  0  0  0  0            999 V2000
    0.5747    2.0929    0.0000 N   0  0  0  0  0  0  0  0  0  0  0  0
   -0.2503    2.0929    0.0000 C   0  0  0  0  0  0  0  0  0  0  0  0
   -0.5052    1.3082    0.0000 C   0  0  0  0  0  0  0  0  0  0  0  0
    0.1622    0.8233    0.0000 S   0  0  0  0  0  0  0  0  0  0  0  0
    0.8297    1.3082    0.0000 C   0  0  0  0  0  0  0  0  0  0  0  0
   -1.3021    1.0947    0.0000 C   0  0  0  0  0  0  0  0  0  0  0  0
   -1.8855    1.6781    0.0000 C   0  0  0  0  0  0  0  0  0  0  0  0
   -2.6823    1.4645    0.0000 C   0  0  0  0  0  0  0  0  0  0  0  0
   -2.8959    0.6677    0.0000 C   0  0  0  0  0  0  0  0  0  0  0  0
   -2.3125    0.0843    0.0000 C   0  0  0  0  0  0  0  0  0  0  0  0
   -1.5156    0.2978    0.0000 C   0  0  0  0  0  0  0  0  0  0  0  0
    1.6266    1.0947    0.0000 C   0  0  0  0  0  0  0  0  0  0  0  0
    1.8401    0.2978    0.0000 C   0  0  0  0  0  0  0  0  0  0  0  0
    2.6370    0.0843    0.0000 C   0  0  0  0  0  0  0  0  0  0  0  0
    3.2203    0.6677    0.0000 C   0  0  0  0  0  0  0  0  0  0  0  0
    3.0068    1.4645    0.0000 C   0  0  0  0  0  0  0  0  0  0  0  0
    2.2099    1.6781    0.0000 C   0  0  0  0  0  0  0  0  0  0  0  0
    4.0172    0.4541    0.0000 N   0  0  0  0  0  0  0  0  0  0  0  0
    4.2308   -0.3428    0.0000 C   0  0  0  0  0  0  0  0  0  0  0  0
    5.0276   -0.5563    0.0000 O   0  0  0  0  0  0  0  0  0  0  0  0
    3.6474   -0.9261    0.0000 O   0  0  0  0  0  0  0  0  0  0  0  0
    5.6110    0.0271    0.0000 C   0  0  0  0  0  0  0  0  0  0  0  0
    6.4079   -0.1865    0.0000 C   0  0  0  0  0  0  0  0  0  0  0  0
    5.3975    0.8240    0.0000 C   0  0  0  0  0  0  0  0  0  0  0  0
   -0.9323   -0.2855    0.0000 S   0  0  0  0  0  0  0  0  0  0  0  0
   -1.1458   -1.0824    0.0000 N   0  0  0  0  0  0  0  0  0  0  0  0
   -0.2172   -0.6980    0.0000 O   0  0  0  0  0  0  0  0  0  0  0  0
   -0.2172    0.1270    0.0000 O   0  0  0  0  0  0  0  0  0  0  0  0
   -1.9427   -1.2960    0.0000 C   0  0  0  0  0  0  0  0  0  0  0  0
   -2.1562   -2.0929    0.0000 C   0  0  0  0  0  0  0  0  0  0  0  0
   -2.5260   -0.7126    0.0000 C   0  0  0  0  0  0  0  0  0  0  0  0
   -2.7396   -1.5095    0.0000 C   0  0  0  0  0  0  0  0  0  0  0  0
   -3.6928    0.4541    0.0000 N   0  0  0  0  0  0  0  0  0  0  0  0
   -4.2761    1.0375    0.0000 C   0  0  0  0  0  0  0  0  0  0  0  0
   -4.0626    1.8344    0.0000 O   0  0  0  0  0  0  0  0  0  0  0  0
   -6.1530    0.0393    0.0000 C   0  0  0  0  0  0  0  0  0  0  0  0
   -5.3280    0.0393    0.0000 N   0  0  0  0  0  0  0  0  0  0  0  0
   -5.0730    0.8240    0.0000 C   0  0  2  0  0  0  0  0  0  0  0  0
   -5.7405    1.3089    0.0000 C   0  0  0  0  0  0  0  0  0  0  0  0
   -6.4079    0.8240    0.0000 C   0  0  0  0  0  0  0  0  0  0  0  0
  1  2  4  0  0  0  0
  2  3  4  0  0  0  0
  3  4  4  0  0  0  0
  4  5  4  0  0  0  0
  5  1  4  0  0  0  0
  3  6  1  0  0  0  0
  6  7  4  0  0  0  0
  7  8  4  0  0  0  0
  8  9  4  0  0  0  0
  9 10  4  0  0  0  0
 10 11  4  0  0  0  0
 11  6  4  0  0  0  0
  5 12  1  0  0  0  0
 12 13  4  0  0  0  0
 13 14  4  0  0  0  0
 14 15  4  0  0  0  0
 15 16  4  0  0  0  0
 16 17  4  0  0  0  0
 17 12  4  0  0  0  0
  9 33  1  0  0  0  0
 15 18  1  0  0  0  0
 18 19  1  0  0  0  0
 19 20  1  0  0  0  0
 19 21  2  0  0  0  0
 20 22  1  0  0  0  0
 22 23  1  0  0  0  0
 22 24  1  0  0  0  0
 11 25  1  0  0  0  0
 25 26  1  0  0  0  0
 25 27  2  0  0  0  0
 28 25  2  0  0  0  0
 26 29  1  0  0  0  0
 29 30  1  0  0  0  0
 29 31  1  0  0  0  0
 29 32  1  0  0  0  0
 33 34  1  0  0  0  0
 38 34  1  6  0  0  0
 34 35  2  0  0  0  0
 36 37  1  0  0  0  0
 38 37  1  0  0  0  0
 38 39  1  0  0  0  0
 39 40  1  0  0  0  0
 40 36  1  0  0  0  0
M  END
> <From>
www.bindingDB.org

> <BindingDB Reactant_set_id>
1155219

> <Ligand InChI>
InChI=1S/C28H35N5O5S2/c1-17(2)38-27(35)32-19-10-8-18(9-11-19)26-30-16-23(39-26)21-13-12-20(31-25(34)22-7-6-14-29-22)15-24(21)40(36,37)33-28(3,4)5/h8-13,15-17,22,29,33H,6-7,14H2,1-5H3,(H,31,34)(H,32,35)/t22-/m1/s1

> <Ligand InChI Key>
GFOOYGWZRJVAPI-JOCHJYFZSA-N

> <BindingDB MonomerID>
546370

> <BindingDB Ligand Name>
US11291655, No H2

> <Target Name>
DNA repair protein RAD51 homolog 1

> <Target Source Organism According to Curator or DataSource>
Homo sapiens

> <Ki (nM)>


> <IC50 (nM)>


> <Kd (nM)>


> <EC50 (nM)>
<5000

> <kon (M-1-s-1)>


> <koff (s-1)>


> <pH>


> <Temp C>


> <Curation/DataSource>
US Patent

> <Article DOI>


> <BindingDB Entry DOI>
10.7270/Q2NG4TV0

> <PMID>


> <PubChem AID>
aid1806421

> <Patent Number>
US11291655

> <Authors>
Castro, AC; McComas, CC; Vacca, J

> <Date of publication>
4/5/2022

> <Date in BindingDB>
7/21/2022

> <Institution>
Cyteir Therapeutics, Inc.

> <Link to Ligand in BindingDB>
http://www.bindingdb.org/bind/chemsearch/marvin/MolStructure.jsp?monomerid=546370

> <Link to Ligand-Target Pair in BindingDB>
http://www.bindingdb.org/jsp/dbsearch/PrimarySearch_ki.jsp?energyterm=kJ/mole&tag=pol&polymerid=4676&target=DNA+repair+protein+RAD51+homolog+1&column=ki&startPg=0&Increment=50&submit=Search

> <Link to Ligand-Target Pair in BindingDB>
http://www.bindingdb.org/jsp/dbsearch/PrimarySearch_ki.jsp?energyterm=kJ/mole&tag=r21&monomerid=546370&enzyme=DNA+repair+protein+RAD51+homolog+1&column=ki&startPg=0&Increment=50&submit=Search

> <Ligand HET ID in PDB>


> <PDB ID(s) for Ligand-Target Complex>


> <PubChem CID of Ligand>
142516669

> <PubChem SID of Ligand>
469681066

> <ChEBI ID of Ligand>


> <ChEMBL ID of Ligand>


> <DrugBank ID of Ligand>


> <IUPHAR_GRAC ID of Ligand>


> <KEGG ID of Ligand>


> <ZINC ID of Ligand>


> <Number of Protein Chains in Target (bigger than 1 implies a multichain complex)>
1

> <BindingDB Target Chain Sequence>
MAMQMQLEANADTSVEEESFGPQPISRLEQCGINANDVKKLEEAGFHTVEAVAYAPKKELINIKGISEAKADKILAEAAKLVPMGFTTATEFHQRRSEIIQITTGSKELDKLLQGGIETGSITEMFGEFRTGKTQICHTLAVTCQLPIDRGGGEGKAMYIDTEGTFRPERLLAVAERYGLSGSDVLDNVAYARAFNTDHQTQLLYQASAMMVESRYALLIVDSATALYRTDYSGRGELSARQMHLARFLRMLLRLADEFGVAVVITNQVVAQVDGAAMFAADPKKPIGGNIIAHASTTRLYLRKGRGETRICKIYDSPCLPEAEAMFAINADGVGDAKD

> <PDB ID(s) of Target Chain>
1N0W,5JZC,5NP7,5NWL,8BQ2,8BR2,8BSC

> <UniProt (SwissProt) Recommended Name of Target Chain>
DNA repair protein RAD51 homolog 1

> <UniProt (SwissProt) Entry Name of Target Chain>
RAD51_HUMAN

> <UniProt (SwissProt) Primary ID of Target Chain>
Q06609

> <UniProt (SwissProt) Secondary ID(s) of Target Chain>
B0FXP0 B2R8T6 Q6FHX9 Q6ZNA8 Q9BV60

> <UniProt (SwissProt) Alternative ID(s) of Target Chain>


> <UniProt (TrEMBL) Submitted Name of Target Chain>


> <UniProt (TrEMBL) Entry Name of Target Chain>


> <UniProt (TrEMBL) Primary ID of Target Chain>


> <UniProt (TrEMBL) Secondary ID(s) of Target Chain>


> <UniProt (TrEMBL) Alternative ID(s) of Target Chain>


$$$$
00230001.cdx
  Mrv0541 07212217012D          

 35 37  0  0  0  0            999 V2000
   -3.8795    0.2615    0.0000 C   0  0  0  0  0  0  0  0  0  0  0  0
   -3.8795   -0.5635    0.0000 C   0  0  0  0  0  0  0  0  0  0  0  0
   -3.1650   -0.9760    0.0000 C   0  0  0  0  0  0  0  0  0  0  0  0
   -2.4506   -0.5635    0.0000 C   0  0  0  0  0  0  0  0  0  0  0  0
   -2.4506    0.2615    0.0000 C   0  0  0  0  0  0  0  0  0  0  0  0
   -3.1650    0.6740    0.0000 C   0  0  0  0  0  0  0  0  0  0  0  0
   -4.5940   -0.9760    0.0000 C   0  0  0  0  0  0  0  0  0  0  0  0
   -5.3084   -0.5635    0.0000 N   0  0  0  0  0  0  0  0  0  0  0  0
   -4.5940   -1.8010    0.0000 O   0  0  0  0  0  0  0  0  0  0  0  0
   -1.7361    1.4990    0.0000 C   0  0  0  0  0  0  0  0  0  0  0  0
   -1.7361    0.6740    0.0000 C   0  0  0  0  0  0  0  0  0  0  0  0
   -0.9515    0.4191    0.0000 S   0  0  0  0  0  0  0  0  0  0  0  0
   -0.4666    1.0865    0.0000 C   0  0  0  0  0  0  0  0  0  0  0  0
   -0.9515    1.7540    0.0000 N   0  0  0  0  0  0  0  0  0  0  0  0
   -1.7361   -0.9760    0.0000 S   0  0  0  0  0  0  0  0  0  0  0  0
   -1.0216   -1.3885    0.0000 N   0  0  0  0  0  0  0  0  0  0  0  0
   -1.3236   -0.2615    0.0000 O   0  0  0  0  0  0  0  0  0  0  0  0
   -2.1486   -1.6905    0.0000 O   0  0  0  0  0  0  0  0  0  0  0  0
   -0.3072   -0.9760    0.0000 C   0  0  0  0  0  0  0  0  0  0  0  0
    0.4073   -1.3885    0.0000 C   0  0  0  0  0  0  0  0  0  0  0  0
   -0.3072   -0.1510    0.0000 C   0  0  0  0  0  0  0  0  0  0  0  0
    0.4073   -0.5635    0.0000 C   0  0  0  0  0  0  0  0  0  0  0  0
    0.3584    1.0865    0.0000 C   0  0  0  0  0  0  0  0  0  0  0  0
    0.7709    0.3720    0.0000 C   0  0  0  0  0  0  0  0  0  0  0  0
    1.5959    0.3720    0.0000 C   0  0  0  0  0  0  0  0  0  0  0  0
    2.0084    1.0865    0.0000 C   0  0  0  0  0  0  0  0  0  0  0  0
    1.5959    1.8010    0.0000 C   0  0  0  0  0  0  0  0  0  0  0  0
    0.7709    1.8010    0.0000 C   0  0  0  0  0  0  0  0  0  0  0  0
    2.8334    1.0865    0.0000 N   0  0  0  0  0  0  0  0  0  0  0  0
    3.2459    0.3720    0.0000 C   0  0  0  0  0  0  0  0  0  0  0  0
    4.0709    0.3720    0.0000 O   0  0  0  0  0  0  0  0  0  0  0  0
    2.8334   -0.3424    0.0000 O   0  0  0  0  0  0  0  0  0  0  0  0
    4.4834    1.0865    0.0000 C   0  0  0  0  0  0  0  0  0  0  0  0
    5.3084    1.0865    0.0000 C   0  0  0  0  0  0  0  0  0  0  0  0
    4.0709    1.8010    0.0000 C   0  0  0  0  0  0  0  0  0  0  0  0
  1  2  4  0  0  0  0
  2  3  4  0  0  0  0
  3  4  4  0  0  0  0
  4  5  4  0  0  0  0
  5  6  4  0  0  0  0
  6  1  4  0  0  0  0
  2  7  1  0  0  0  0
  7  8  1  0  0  0  0
  7  9  2  0  0  0  0
  5 11  1  0  0  0  0
 10 11  4  0  0  0  0
 11 12  4  0  0  0  0
 12 13  4  0  0  0  0
 13 14  4  0  0  0  0
 14 10  4  0  0  0  0
  4 15  1  0  0  0  0
 15 16  1  0  0  0  0
 15 17  2  0  0  0  0
 15 18  2  0  0  0  0
 16 19  1  0  0  0  0
 19 20  1  0  0  0  0
 19 21  1  0  0  0  0
 19 22  1  0  0  0  0
 13 23  1  0  0  0  0
 23 24  4  0  0  0  0
 24 25  4  0  0  0  0
 25 26  4  0  0  0  0
 26 27  4  0  0  0  0
 27 28  4  0  0  0  0
 28 23  4  0  0  0  0
 26 29  1  0  0  0  0
 29 30  1  0  0  0  0
 30 31  1  0  0  0  0
 30 32  2  0  0  0  0
 31 33  1  0  0  0  0
 33 34  1  0  0  0  0
 33 35  1  0  0  0  0
M  END
> <From>
www.bindingDB.org

> <BindingDB Reactant_set_id>
1155220

> <Ligand InChI>
InChI=1S/C24H28N4O5S2/c1-14(2)33-23(30)27-17-9-6-15(7-10-17)22-26-13-19(34-22)18-11-8-16(21(25)29)12-20(18)35(31,32)28-24(3,4)5/h6-14,28H,1-5H3,(H2,25,29)(H,27,30)

> <Ligand InChI Key>
VPEFGMIUUDMQHS-UHFFFAOYSA-N

> <BindingDB MonomerID>
546371

> <BindingDB Ligand Name>
US11291655, No I6

> <Target Name>
DNA repair protein RAD51 homolog 1

> <Target Source Organism According to Curator or DataSource>
Homo sapiens

> <Ki (nM)>


> <IC50 (nM)>


> <Kd (nM)>


> <EC50 (nM)>
<5000

> <kon (M-1-s-1)>


> <koff (s-1)>


> <pH>


> <Temp C>


> <Curation/DataSource>
US Patent

> <Article DOI>


> <BindingDB Entry DOI>
10.7270/Q2NG4TV0

> <PMID>


> <PubChem AID>
aid1806421

> <Patent Number>
US11291655

> <Authors>
Castro, AC; McComas, CC; Vacca, J

> <Date of publication>
4/5/2022

> <Date in BindingDB>
7/21/2022

> <Institution>
Cyteir Therapeutics, Inc.

> <Link to Ligand in BindingDB>
http://www.bindingdb.org/bind/chemsearch/marvin/MolStructure.jsp?monomerid=546371

> <Link to Ligand-Target Pair in BindingDB>
http://www.bindingdb.org/jsp/dbsearch/PrimarySearch_ki.jsp?energyterm=kJ/mole&tag=pol&polymerid=4676&target=DNA+repair+protein+RAD51+homolog+1&column=ki&startPg=0&Increment=50&submit=Search

> <Link to Ligand-Target Pair in BindingDB>
http://www.bindingdb.org/jsp/dbsearch/PrimarySearch_ki.jsp?energyterm=kJ/mole&tag=r21&monomerid=546371&enzyme=DNA+repair+protein+RAD51+homolog+1&column=ki&startPg=0&Increment=50&submit=Search

> <Ligand HET ID in PDB>


> <PDB ID(s) for Ligand-Target Complex>


> <PubChem CID of Ligand>
137411797

> <PubChem SID of Ligand>
469681067

> <ChEBI ID of Ligand>


> <ChEMBL ID of Ligand>


> <DrugBank ID of Ligand>


> <IUPHAR_GRAC ID of Ligand>


> <KEGG ID of Ligand>


> <ZINC ID of Ligand>


> <Number of Protein Chains in Target (bigger than 1 implies a multichain complex)>
1

> <BindingDB Target Chain Sequence>
MAMQMQLEANADTSVEEESFGPQPISRLEQCGINANDVKKLEEAGFHTVEAVAYAPKKELINIKGISEAKADKILAEAAKLVPMGFTTATEFHQRRSEIIQITTGSKELDKLLQGGIETGSITEMFGEFRTGKTQICHTLAVTCQLPIDRGGGEGKAMYIDTEGTFRPERLLAVAERYGLSGSDVLDNVAYARAFNTDHQTQLLYQASAMMVESRYALLIVDSATALYRTDYSGRGELSARQMHLARFLRMLLRLADEFGVAVVITNQVVAQVDGAAMFAADPKKPIGGNIIAHASTTRLYLRKGRGETRICKIYDSPCLPEAEAMFAINADGVGDAKD

> <PDB ID(s) of Target Chain>
1N0W,5JZC,5NP7,5NWL,8BQ2,8BR2,8BSC

> <UniProt (SwissProt) Recommended Name of Target Chain>
DNA repair protein RAD51 homolog 1

> <UniProt (SwissProt) Entry Name of Target Chain>
RAD51_HUMAN

> <UniProt (SwissProt) Primary ID of Target Chain>
Q06609

> <UniProt (SwissProt) Secondary ID(s) of Target Chain>
B0FXP0 B2R8T6 Q6FHX9 Q6ZNA8 Q9BV60

> <UniProt (SwissProt) Alternative ID(s) of Target Chain>


> <UniProt (TrEMBL) Submitted Name of Target Chain>


> <UniProt (TrEMBL) Entry Name of Target Chain>


> <UniProt (TrEMBL) Primary ID of Target Chain>


> <UniProt (TrEMBL) Secondary ID(s) of Target Chain>


> <UniProt (TrEMBL) Alternative ID(s) of Target Chain>


$$$$
00231001.cdx
  Mrv0541 07212217012D          

 38 40  0  0  0  0            999 V2000
   -0.0684    2.0929    0.0000 N   0  0  0  0  0  0  0  0  0  0  0  0
   -0.8934    2.0929    0.0000 C   0  0  0  0  0  0  0  0  0  0  0  0
   -1.1483    1.3082    0.0000 C   0  0  0  0  0  0  0  0  0  0  0  0
   -0.4809    0.8233    0.0000 S   0  0  0  0  0  0  0  0  0  0  0  0
    0.1866    1.3082    0.0000 C   0  0  0  0  0  0  0  0  0  0  0  0
   -1.9452    1.0947    0.0000 C   0  0  0  0  0  0  0  0  0  0  0  0
   -2.5286    1.6781    0.0000 C   0  0  0  0  0  0  0  0  0  0  0  0
   -3.3254    1.4645    0.0000 C   0  0  0  0  0  0  0  0  0  0  0  0
   -3.5390    0.6677    0.0000 C   0  0  0  0  0  0  0  0  0  0  0  0
   -2.9556    0.0843    0.0000 C   0  0  0  0  0  0  0  0  0  0  0  0
   -2.1587    0.2978    0.0000 C   0  0  0  0  0  0  0  0  0  0  0  0
    0.9835    1.0947    0.0000 C   0  0  0  0  0  0  0  0  0  0  0  0
    1.1970    0.2978    0.0000 C   0  0  0  0  0  0  0  0  0  0  0  0
    1.9939    0.0843    0.0000 C   0  0  0  0  0  0  0  0  0  0  0  0
    2.5772    0.6677    0.0000 C   0  0  0  0  0  0  0  0  0  0  0  0
    2.3637    1.4645    0.0000 C   0  0  0  0  0  0  0  0  0  0  0  0
    1.5668    1.6781    0.0000 C   0  0  0  0  0  0  0  0  0  0  0  0
    3.3741    0.4541    0.0000 N   0  0  0  0  0  0  0  0  0  0  0  0
    3.5877   -0.3428    0.0000 C   0  0  0  0  0  0  0  0  0  0  0  0
    4.3845   -0.5563    0.0000 N   0  0  0  0  0  0  0  0  0  0  0  0
    3.0043   -0.9261    0.0000 O   0  0  0  0  0  0  0  0  0  0  0  0
    4.9679    0.0271    0.0000 C   0  0  0  0  0  0  0  0  0  0  0  0
    5.7648   -0.1865    0.0000 C   0  0  0  0  0  0  0  0  0  0  0  0
    4.7544    0.8240    0.0000 C   0  0  0  0  0  0  0  0  0  0  0  0
   -1.5754   -0.2855    0.0000 S   0  0  0  0  0  0  0  0  0  0  0  0
   -1.7889   -1.0824    0.0000 N   0  0  0  0  0  0  0  0  0  0  0  0
   -0.8603   -0.6980    0.0000 O   0  0  0  0  0  0  0  0  0  0  0  0
   -0.8603    0.1270    0.0000 O   0  0  0  0  0  0  0  0  0  0  0  0
   -2.5858   -1.2960    0.0000 C   0  0  0  0  0  0  0  0  0  0  0  0
   -2.7993   -2.0929    0.0000 C   0  0  0  0  0  0  0  0  0  0  0  0
   -3.1691   -0.7126    0.0000 C   0  0  0  0  0  0  0  0  0  0  0  0
   -3.3827   -1.5095    0.0000 C   0  0  0  0  0  0  0  0  0  0  0  0
   -4.3359    0.4541    0.0000 N   0  0  0  0  0  0  0  0  0  0  0  0
   -5.0503    0.8666    0.0000 S   0  0  0  0  0  0  0  0  0  0  0  0
   -4.3359   -0.3709    0.0000 C   0  0  0  0  0  0  0  0  0  0  0  0
   -5.7648    0.4541    0.0000 C   0  0  0  0  0  0  0  0  0  0  0  0
   -4.6378    1.5811    0.0000 O   0  0  0  0  0  0  0  0  0  0  0  0
   -5.4628    1.5811    0.0000 O   0  0  0  0  0  0  0  0  0  0  0  0
  1  2  4  0  0  0  0
  2  3  4  0  0  0  0
  3  4  4  0  0  0  0
  4  5  4  0  0  0  0
  5  1  4  0  0  0  0
  3  6  1  0  0  0  0
  6  7  4  0  0  0  0
  7  8  4  0  0  0  0
  8  9  4  0  0  0  0
  9 10  4  0  0  0  0
 10 11  4  0  0  0  0
 11  6  4  0  0  0  0
  5 12  1  0  0  0  0
 12 13  4  0  0  0  0
 13 14  4  0  0  0  0
 14 15  4  0  0  0  0
 15 16  4  0  0  0  0
 16 17  4  0  0  0  0
 17 12  4  0  0  0  0
  9 33  1  0  0  0  0
 15 18  1  0  0  0  0
 18 19  1  0  0  0  0
 19 20  1  0  0  0  0
 19 21  2  0  0  0  0
 20 22  1  0  0  0  0
 22 23  1  0  0  0  0
 22 24  1  0  0  0  0
 11 25  1  0  0  0  0
 25 26  1  0  0  0  0
 25 27  2  0  0  0  0
 28 25  2  0  0  0  0
 26 29  1  0  0  0  0
 29 30  1  0  0  0  0
 29 31  1  0  0  0  0
 29 32  1  0  0  0  0
 33 34  1  0  0  0  0
 33 35  1  0  0  0  0
 34 36  1  0  0  0  0
 34 37  2  0  0  0  0
 38 34  2  0  0  0  0
M  END
> <From>
www.bindingDB.org

> <BindingDB Reactant_set_id>
1155221

> <Ligand InChI>
InChI=1S/C25H33N5O5S3/c1-16(2)27-24(31)28-18-10-8-17(9-11-18)23-26-15-21(36-23)20-13-12-19(30(6)37(7,32)33)14-22(20)38(34,35)29-25(3,4)5/h8-16,29H,1-7H3,(H2,27,28,31)

> <Ligand InChI Key>
IDQHLDQWPRXUII-UHFFFAOYSA-N

> <BindingDB MonomerID>
546372

> <BindingDB Ligand Name>
US11291655, No I7

> <Target Name>
DNA repair protein RAD51 homolog 1

> <Target Source Organism According to Curator or DataSource>
Homo sapiens

> <Ki (nM)>


> <IC50 (nM)>


> <Kd (nM)>


> <EC50 (nM)>
>10000

> <kon (M-1-s-1)>


> <koff (s-1)>


> <pH>


> <Temp C>


> <Curation/DataSource>
US Patent

> <Article DOI>


> <BindingDB Entry DOI>
10.7270/Q2NG4TV0

> <PMID>


> <PubChem AID>
aid1806421

> <Patent Number>
US11291655

> <Authors>
Castro, AC; McComas, CC; Vacca, J

> <Date of publication>
4/5/2022

> <Date in BindingDB>
7/21/2022

> <Institution>
Cyteir Therapeutics, Inc.

> <Link to Ligand in BindingDB>
http://www.bindingdb.org/bind/chemsearch/marvin/MolStructure.jsp?monomerid=546372

> <Link to Ligand-Target Pair in BindingDB>
http://www.bindingdb.org/jsp/dbsearch/PrimarySearch_ki.jsp?energyterm=kJ/mole&tag=pol&polymerid=4676&target=DNA+repair+protein+RAD51+homolog+1&column=ki&startPg=0&Increment=50&submit=Search

> <Link to Ligand-Target Pair in BindingDB>
http://www.bindingdb.org/jsp/dbsearch/PrimarySearch_ki.jsp?energyterm=kJ/mole&tag=r21&monomerid=546372&enzyme=DNA+repair+protein+RAD51+homolog+1&column=ki&startPg=0&Increment=50&submit=Search

> <Ligand HET ID in PDB>


> <PDB ID(s) for Ligand-Target Complex>


> <PubChem CID of Ligand>
137408574

> <PubChem SID of Ligand>
469681068

> <ChEBI ID of Ligand>


> <ChEMBL ID of Ligand>


> <DrugBank ID of Ligand>


> <IUPHAR_GRAC ID of Ligand>


> <KEGG ID of Ligand>


> <ZINC ID of Ligand>


> <Number of Protein Chains in Target (bigger than 1 implies a multichain complex)>
1

> <BindingDB Target Chain Sequence>
MAMQMQLEANADTSVEEESFGPQPISRLEQCGINANDVKKLEEAGFHTVEAVAYAPKKELINIKGISEAKADKILAEAAKLVPMGFTTATEFHQRRSEIIQITTGSKELDKLLQGGIETGSITEMFGEFRTGKTQICHTLAVTCQLPIDRGGGEGKAMYIDTEGTFRPERLLAVAERYGLSGSDVLDNVAYARAFNTDHQTQLLYQASAMMVESRYALLIVDSATALYRTDYSGRGELSARQMHLARFLRMLLRLADEFGVAVVITNQVVAQVDGAAMFAADPKKPIGGNIIAHASTTRLYLRKGRGETRICKIYDSPCLPEAEAMFAINADGVGDAKD

> <PDB ID(s) of Target Chain>
1N0W,5JZC,5NP7,5NWL,8BQ2,8BR2,8BSC

> <UniProt (SwissProt) Recommended Name of Target Chain>
DNA repair protein RAD51 homolog 1

> <UniProt (SwissProt) Entry Name of Target Chain>
RAD51_HUMAN

> <UniProt (SwissProt) Primary ID of Target Chain>
Q06609

> <UniProt (SwissProt) Secondary ID(s) of Target Chain>
B0FXP0 B2R8T6 Q6FHX9 Q6ZNA8 Q9BV60

> <UniProt (SwissProt) Alternative ID(s) of Target Chain>


> <UniProt (TrEMBL) Submitted Name of Target Chain>


> <UniProt (TrEMBL) Entry Name of Target Chain>


> <UniProt (TrEMBL) Primary ID of Target Chain>


> <UniProt (TrEMBL) Secondary ID(s) of Target Chain>


> <UniProt (TrEMBL) Alternative ID(s) of Target Chain>


$$$$
00232001.cdx
  Mrv0541 07212217012D          

 43 46  0  0  0  0            999 V2000
    1.3943    2.0929    0.0000 N   0  0  0  0  0  0  0  0  0  0  0  0
    0.5693    2.0929    0.0000 C   0  0  0  0  0  0  0  0  0  0  0  0
    0.3144    1.3082    0.0000 C   0  0  0  0  0  0  0  0  0  0  0  0
    0.9818    0.8233    0.0000 S   0  0  0  0  0  0  0  0  0  0  0  0
    1.6492    1.3082    0.0000 C   0  0  0  0  0  0  0  0  0  0  0  0
   -0.4825    1.0947    0.0000 C   0  0  0  0  0  0  0  0  0  0  0  0
   -1.0659    1.6781    0.0000 C   0  0  0  0  0  0  0  0  0  0  0  0
   -1.8628    1.4645    0.0000 C   0  0  0  0  0  0  0  0  0  0  0  0
   -2.0763    0.6677    0.0000 C   0  0  0  0  0  0  0  0  0  0  0  0
   -1.4929    0.0843    0.0000 C   0  0  0  0  0  0  0  0  0  0  0  0
   -0.6960    0.2978    0.0000 C   0  0  0  0  0  0  0  0  0  0  0  0
    2.4461    1.0947    0.0000 C   0  0  0  0  0  0  0  0  0  0  0  0
    2.6597    0.2978    0.0000 C   0  0  0  0  0  0  0  0  0  0  0  0
    3.4565    0.0843    0.0000 C   0  0  0  0  0  0  0  0  0  0  0  0
    4.0399    0.6677    0.0000 C   0  0  0  0  0  0  0  0  0  0  0  0
    3.8264    1.4645    0.0000 C   0  0  0  0  0  0  0  0  0  0  0  0
    3.0295    1.6781    0.0000 C   0  0  0  0  0  0  0  0  0  0  0  0
    4.8368    0.4541    0.0000 N   0  0  0  0  0  0  0  0  0  0  0  0
    5.0503   -0.3428    0.0000 C   0  0  0  0  0  0  0  0  0  0  0  0
    5.8472   -0.5563    0.0000 N   0  0  0  0  0  0  0  0  0  0  0  0
    4.4670   -0.9261    0.0000 S   0  0  0  0  0  0  0  0  0  0  0  0
    6.4306    0.0271    0.0000 C   0  0  0  0  0  0  0  0  0  0  0  0
    7.2275   -0.1865    0.0000 C   0  0  0  0  0  0  0  0  0  0  0  0
    6.2171    0.8240    0.0000 C   0  0  0  0  0  0  0  0  0  0  0  0
   -0.1127   -0.2855    0.0000 S   0  0  0  0  0  0  0  0  0  0  0  0
   -0.3262   -1.0824    0.0000 N   0  0  0  0  0  0  0  0  0  0  0  0
    0.6024   -0.6980    0.0000 O   0  0  0  0  0  0  0  0  0  0  0  0
    0.6024    0.1270    0.0000 O   0  0  0  0  0  0  0  0  0  0  0  0
   -1.1231   -1.2960    0.0000 C   0  0  0  0  0  0  0  0  0  0  0  0
   -1.3366   -2.0929    0.0000 C   0  0  0  0  0  0  0  0  0  0  0  0
   -1.7065   -0.7126    0.0000 C   0  0  0  0  0  0  0  0  0  0  0  0
   -1.9200   -1.5095    0.0000 C   0  0  0  0  0  0  0  0  0  0  0  0
   -2.8732    0.4541    0.0000 N   0  0  0  0  0  0  0  0  0  0  0  0
   -3.4565    1.0375    0.0000 C   0  0  0  0  0  0  0  0  0  0  0  0
   -4.2534    0.8240    0.0000 O   0  0  0  0  0  0  0  0  0  0  0  0
   -3.2430    1.8344    0.0000 O   0  0  0  0  0  0  0  0  0  0  0  0
   -4.8368    1.4073    0.0000 C   0  0  0  0  0  0  0  0  0  0  0  0
   -5.6337    1.1938    0.0000 C   0  0  0  0  0  0  0  0  0  0  0  0
   -6.2171    1.7772    0.0000 C   0  0  0  0  0  0  0  0  0  0  0  0
   -7.0139    1.5636    0.0000 C   0  0  0  0  0  0  0  0  0  0  0  0
   -7.2275    0.7668    0.0000 C   0  0  0  0  0  0  0  0  0  0  0  0
   -6.6441    0.1834    0.0000 C   0  0  0  0  0  0  0  0  0  0  0  0
   -5.8472    0.3969    0.0000 C   0  0  0  0  0  0  0  0  0  0  0  0
  1  2  4  0  0  0  0
  2  3  4  0  0  0  0
  3  4  4  0  0  0  0
  4  5  4  0  0  0  0
  5  1  4  0  0  0  0
  3  6  1  0  0  0  0
  6  7  4  0  0  0  0
  7  8  4  0  0  0  0
  8  9  4  0  0  0  0
  9 10  4  0  0  0  0
 10 11  4  0  0  0  0
 11  6  4  0  0  0  0
  5 12  1  0  0  0  0
 12 13  4  0  0  0  0
 13 14  4  0  0  0  0
 14 15  4  0  0  0  0
 15 16  4  0  0  0  0
 16 17  4  0  0  0  0
 17 12  4  0  0  0  0
  9 33  1  0  0  0  0
 15 18  1  0  0  0  0
 18 19  1  0  0  0  0
 19 20  1  0  0  0  0
 19 21  2  0  0  0  0
 20 22  1  0  0  0  0
 22 23  1  0  0  0  0
 22 24  1  0  0  0  0
 11 25  1  0  0  0  0
 25 26  1  0  0  0  0
 25 27  2  0  0  0  0
 28 25  2  0  0  0  0
 26 29  1  0  0  0  0
 29 30  1  0  0  0  0
 29 31  1  0  0  0  0
 29 32  1  0  0  0  0
 33 34  1  0  0  0  0
 34 35  1  0  0  0  0
 34 36  2  0  0  0  0
 35 37  1  0  0  0  0
 37 38  1  0  0  0  0
 38 39  4  0  0  0  0
 39 40  4  0  0  0  0
 40 41  4  0  0  0  0
 41 42  4  0  0  0  0
 42 43  4  0  0  0  0
 43 38  4  0  0  0  0
M  END
> <From>
www.bindingDB.org

> <BindingDB Reactant_set_id>
1155222

> <Ligand InChI>
InChI=1S/C31H35N5O4S3/c1-20(2)33-29(41)34-23-13-11-22(12-14-23)28-32-18-26(42-28)25-16-15-24(17-27(25)43(38,39)36-31(3,4)5)35-30(37)40-19-21-9-7-6-8-10-21/h6-18,20,36H,19H2,1-5H3,(H,35,37)(H2,33,34,41)

> <Ligand InChI Key>
MZSHJGZTHYIREY-UHFFFAOYSA-N

> <BindingDB MonomerID>
546373

> <BindingDB Ligand Name>
US11291655, No L4

> <Target Name>
DNA repair protein RAD51 homolog 1

> <Target Source Organism According to Curator or DataSource>
Homo sapiens

> <Ki (nM)>


> <IC50 (nM)>


> <Kd (nM)>


> <EC50 (nM)>
>10000

> <kon (M-1-s-1)>


> <koff (s-1)>


> <pH>


> <Temp C>


> <Curation/DataSource>
US Patent

> <Article DOI>


> <BindingDB Entry DOI>
10.7270/Q2NG4TV0

> <PMID>


> <PubChem AID>
aid1806421

> <Patent Number>
US11291655

> <Authors>
Castro, AC; McComas, CC; Vacca, J

> <Date of publication>
4/5/2022

> <Date in BindingDB>
7/21/2022

> <Institution>
Cyteir Therapeutics, Inc.

> <Link to Ligand in BindingDB>
http://www.bindingdb.org/bind/chemsearch/marvin/MolStructure.jsp?monomerid=546373

> <Link to Ligand-Target Pair in BindingDB>
http://www.bindingdb.org/jsp/dbsearch/PrimarySearch_ki.jsp?energyterm=kJ/mole&tag=pol&polymerid=4676&target=DNA+repair+protein+RAD51+homolog+1&column=ki&startPg=0&Increment=50&submit=Search

> <Link to Ligand-Target Pair in BindingDB>
http://www.bindingdb.org/jsp/dbsearch/PrimarySearch_ki.jsp?energyterm=kJ/mole&tag=r21&monomerid=546373&enzyme=DNA+repair+protein+RAD51+homolog+1&column=ki&startPg=0&Increment=50&submit=Search

> <Ligand HET ID in PDB>


> <PDB ID(s) for Ligand-Target Complex>


> <PubChem CID of Ligand>
137411907

> <PubChem SID of Ligand>
469681069

> <ChEBI ID of Ligand>


> <ChEMBL ID of Ligand>


> <DrugBank ID of Ligand>


> <IUPHAR_GRAC ID of Ligand>


> <KEGG ID of Ligand>


> <ZINC ID of Ligand>


> <Number of Protein Chains in Target (bigger than 1 implies a multichain complex)>
1

> <BindingDB Target Chain Sequence>
MAMQMQLEANADTSVEEESFGPQPISRLEQCGINANDVKKLEEAGFHTVEAVAYAPKKELINIKGISEAKADKILAEAAKLVPMGFTTATEFHQRRSEIIQITTGSKELDKLLQGGIETGSITEMFGEFRTGKTQICHTLAVTCQLPIDRGGGEGKAMYIDTEGTFRPERLLAVAERYGLSGSDVLDNVAYARAFNTDHQTQLLYQASAMMVESRYALLIVDSATALYRTDYSGRGELSARQMHLARFLRMLLRLADEFGVAVVITNQVVAQVDGAAMFAADPKKPIGGNIIAHASTTRLYLRKGRGETRICKIYDSPCLPEAEAMFAINADGVGDAKD

> <PDB ID(s) of Target Chain>
1N0W,5JZC,5NP7,5NWL,8BQ2,8BR2,8BSC

> <UniProt (SwissProt) Recommended Name of Target Chain>
DNA repair protein RAD51 homolog 1

> <UniProt (SwissProt) Entry Name of Target Chain>
RAD51_HUMAN

> <UniProt (SwissProt) Primary ID of Target Chain>
Q06609

> <UniProt (SwissProt) Secondary ID(s) of Target Chain>
B0FXP0 B2R8T6 Q6FHX9 Q6ZNA8 Q9BV60

> <UniProt (SwissProt) Alternative ID(s) of Target Chain>


> <UniProt (TrEMBL) Submitted Name of Target Chain>


> <UniProt (TrEMBL) Entry Name of Target Chain>


> <UniProt (TrEMBL) Primary ID of Target Chain>


> <UniProt (TrEMBL) Secondary ID(s) of Target Chain>


> <UniProt (TrEMBL) Alternative ID(s) of Target Chain>


$$$$
00233001.cdx
  Mrv0541 07212217012D          

 41 44  0  0  0  0            999 V2000
    0.4813    1.8361    0.0000 N   0  0  0  0  0  0  0  0  0  0  0  0
   -0.3437    1.8361    0.0000 C   0  0  0  0  0  0  0  0  0  0  0  0
   -0.5987    1.0514    0.0000 C   0  0  0  0  0  0  0  0  0  0  0  0
    0.0688    0.5665    0.0000 S   0  0  0  0  0  0  0  0  0  0  0  0
    0.7362    1.0514    0.0000 C   0  0  0  0  0  0  0  0  0  0  0  0
   -1.3131    0.6389    0.0000 C   0  0  0  0  0  0  0  0  0  0  0  0
    1.5331    0.8379    0.0000 C   0  0  0  0  0  0  0  0  0  0  0  0
    1.7466    0.0410    0.0000 C   0  0  0  0  0  0  0  0  0  0  0  0
    2.5435   -0.1725    0.0000 C   0  0  0  0  0  0  0  0  0  0  0  0
    3.1269    0.4109    0.0000 C   0  0  0  0  0  0  0  0  0  0  0  0
    2.9134    1.2078    0.0000 C   0  0  0  0  0  0  0  0  0  0  0  0
    2.1165    1.4213    0.0000 C   0  0  0  0  0  0  0  0  0  0  0  0
    3.9238    0.1973    0.0000 N   0  0  0  0  0  0  0  0  0  0  0  0
    4.1373   -0.5996    0.0000 C   0  0  0  0  0  0  0  0  0  0  0  0
    4.9342   -0.8131    0.0000 N   0  0  0  0  0  0  0  0  0  0  0  0
    3.5539   -1.1829    0.0000 S   0  0  0  0  0  0  0  0  0  0  0  0
    5.5175   -0.2297    0.0000 C   0  0  0  0  0  0  0  0  0  0  0  0
    6.3144   -0.4432    0.0000 C   0  0  0  0  0  0  0  0  0  0  0  0
    5.3040    0.5672    0.0000 C   0  0  0  0  0  0  0  0  0  0  0  0
   -2.0276    1.0514    0.0000 C   0  0  0  0  0  0  0  0  0  0  0  0
   -2.7421    0.6389    0.0000 C   0  0  0  0  0  0  0  0  0  0  0  0
   -2.7421   -0.1861    0.0000 C   0  0  0  0  0  0  0  0  0  0  0  0
   -2.0276   -0.5986    0.0000 C   0  0  0  0  0  0  0  0  0  0  0  0
   -1.3131   -0.1861    0.0000 C   0  0  0  0  0  0  0  0  0  0  0  0
   -3.4565   -0.5986    0.0000 N   0  0  0  0  0  0  0  0  0  0  0  0
   -4.1710   -0.1861    0.0000 C   0  0  0  0  0  0  0  0  0  0  0  0
   -4.8855   -0.5986    0.0000 C   0  0  0  0  0  0  0  0  0  0  0  0
   -4.1710    0.6389    0.0000 O   0  0  0  0  0  0  0  0  0  0  0  0
   -5.6000   -0.1861    0.0000 C   0  0  0  0  0  0  0  0  0  0  0  0
   -6.3144   -0.5986    0.0000 C   0  0  0  0  0  0  0  0  0  0  0  0
   -6.3144   -1.4236    0.0000 C   0  0  0  0  0  0  0  0  0  0  0  0
   -5.6000   -1.8361    0.0000 C   0  0  0  0  0  0  0  0  0  0  0  0
   -4.8855   -1.4236    0.0000 C   0  0  0  0  0  0  0  0  0  0  0  0
   -0.5987   -0.5986    0.0000 S   0  0  0  0  0  0  0  0  0  0  0  0
    0.1158   -1.0111    0.0000 N   0  0  0  0  0  0  0  0  0  0  0  0
   -0.1862    0.1159    0.0000 O   0  0  0  0  0  0  0  0  0  0  0  0
   -1.0112   -1.3130    0.0000 O   0  0  0  0  0  0  0  0  0  0  0  0
    0.8303   -0.5986    0.0000 C   0  0  0  0  0  0  0  0  0  0  0  0
    1.5447   -1.0111    0.0000 C   0  0  0  0  0  0  0  0  0  0  0  0
    0.8303    0.2264    0.0000 C   0  0  0  0  0  0  0  0  0  0  0  0
    1.5447   -0.1861    0.0000 C   0  0  0  0  0  0  0  0  0  0  0  0
  1  2  4  0  0  0  0
  2  3  4  0  0  0  0
  3  4  4  0  0  0  0
  4  5  4  0  0  0  0
  5  1  4  0  0  0  0
  3  6  1  0  0  0  0
  5  7  1  0  0  0  0
  7  8  4  0  0  0  0
  8  9  4  0  0  0  0
  9 10  4  0  0  0  0
 10 11  4  0  0  0  0
 11 12  4  0  0  0  0
 12  7  4  0  0  0  0
 10 13  1  0  0  0  0
 13 14  1  0  0  0  0
 14 15  1  0  0  0  0
 14 16  2  0  0  0  0
 15 17  1  0  0  0  0
 17 18  1  0  0  0  0
 17 19  1  0  0  0  0
  6 20  4  0  0  0  0
 20 21  4  0  0  0  0
 21 22  4  0  0  0  0
 22 23  4  0  0  0  0
 23 24  4  0  0  0  0
 24  6  4  0  0  0  0
 22 25  1  0  0  0  0
 25 26  1  0  0  0  0
 26 27  1  0  0  0  0
 26 28  2  0  0  0  0
 27 29  4  0  0  0  0
 29 30  4  0  0  0  0
 30 31  4  0  0  0  0
 31 32  4  0  0  0  0
 32 33  4  0  0  0  0
 33 27  4  0  0  0  0
 24 34  1  0  0  0  0
 34 35  1  0  0  0  0
 34 36  2  0  0  0  0
 34 37  2  0  0  0  0
 35 38  1  0  0  0  0
 38 39  1  0  0  0  0
 38 40  1  0  0  0  0
 38 41  1  0  0  0  0
M  END
> <From>
www.bindingDB.org

> <BindingDB Reactant_set_id>
1155223

> <Ligand InChI>
InChI=1S/C30H33N5O3S3/c1-19(2)32-29(39)34-22-13-11-21(12-14-22)28-31-18-25(40-28)24-16-15-23(33-27(36)20-9-7-6-8-10-20)17-26(24)41(37,38)35-30(3,4)5/h6-19,35H,1-5H3,(H,33,36)(H2,32,34,39)

> <Ligand InChI Key>
YQEUUUBLQXQPIA-UHFFFAOYSA-N

> <BindingDB MonomerID>
546374

> <BindingDB Ligand Name>
US11291655, No L6

> <Target Name>
DNA repair protein RAD51 homolog 1

> <Target Source Organism According to Curator or DataSource>
Homo sapiens

> <Ki (nM)>


> <IC50 (nM)>


> <Kd (nM)>


> <EC50 (nM)>
<5000

> <kon (M-1-s-1)>


> <koff (s-1)>


> <pH>


> <Temp C>


> <Curation/DataSource>
US Patent

> <Article DOI>


> <BindingDB Entry DOI>
10.7270/Q2NG4TV0

> <PMID>


> <PubChem AID>
aid1806421

> <Patent Number>
US11291655

> <Authors>
Castro, AC; McComas, CC; Vacca, J

> <Date of publication>
4/5/2022

> <Date in BindingDB>
7/21/2022

> <Institution>
Cyteir Therapeutics, Inc.

> <Link to Ligand in BindingDB>
http://www.bindingdb.org/bind/chemsearch/marvin/MolStructure.jsp?monomerid=546374

> <Link to Ligand-Target Pair in BindingDB>
http://www.bindingdb.org/jsp/dbsearch/PrimarySearch_ki.jsp?energyterm=kJ/mole&tag=pol&polymerid=4676&target=DNA+repair+protein+RAD51+homolog+1&column=ki&startPg=0&Increment=50&submit=Search

> <Link to Ligand-Target Pair in BindingDB>
http://www.bindingdb.org/jsp/dbsearch/PrimarySearch_ki.jsp?energyterm=kJ/mole&tag=r21&monomerid=546374&enzyme=DNA+repair+protein+RAD51+homolog+1&column=ki&startPg=0&Increment=50&submit=Search

> <Ligand HET ID in PDB>


> <PDB ID(s) for Ligand-Target Complex>


> <PubChem CID of Ligand>
137412039

> <PubChem SID of Ligand>
469681070

> <ChEBI ID of Ligand>


> <ChEMBL ID of Ligand>


> <DrugBank ID of Ligand>


> <IUPHAR_GRAC ID of Ligand>


> <KEGG ID of Ligand>


> <ZINC ID of Ligand>


> <Number of Protein Chains in Target (bigger than 1 implies a multichain complex)>
1

> <BindingDB Target Chain Sequence>
MAMQMQLEANADTSVEEESFGPQPISRLEQCGINANDVKKLEEAGFHTVEAVAYAPKKELINIKGISEAKADKILAEAAKLVPMGFTTATEFHQRRSEIIQITTGSKELDKLLQGGIETGSITEMFGEFRTGKTQICHTLAVTCQLPIDRGGGEGKAMYIDTEGTFRPERLLAVAERYGLSGSDVLDNVAYARAFNTDHQTQLLYQASAMMVESRYALLIVDSATALYRTDYSGRGELSARQMHLARFLRMLLRLADEFGVAVVITNQVVAQVDGAAMFAADPKKPIGGNIIAHASTTRLYLRKGRGETRICKIYDSPCLPEAEAMFAINADGVGDAKD

> <PDB ID(s) of Target Chain>
1N0W,5JZC,5NP7,5NWL,8BQ2,8BR2,8BSC

> <UniProt (SwissProt) Recommended Name of Target Chain>
DNA repair protein RAD51 homolog 1

> <UniProt (SwissProt) Entry Name of Target Chain>
RAD51_HUMAN

> <UniProt (SwissProt) Primary ID of Target Chain>
Q06609

> <UniProt (SwissProt) Secondary ID(s) of Target Chain>
B0FXP0 B2R8T6 Q6FHX9 Q6ZNA8 Q9BV60

> <UniProt (SwissProt) Alternative ID(s) of Target Chain>


> <UniProt (TrEMBL) Submitted Name of Target Chain>


> <UniProt (TrEMBL) Entry Name of Target Chain>


> <UniProt (TrEMBL) Primary ID of Target Chain>


> <UniProt (TrEMBL) Secondary ID(s) of Target Chain>


> <UniProt (TrEMBL) Alternative ID(s) of Target Chain>


$$$$
00234001.cdx
  Mrv0541 07212217012D          

 44 47  0  0  0  0            999 V2000
   -1.3789    2.5303    0.0000 C   0  0  0  0  0  0  0  0  0  0  0  0
   -1.3789    1.7053    0.0000 C   0  0  0  0  0  0  0  0  0  0  0  0
   -0.5942    1.4503    0.0000 S   0  0  0  0  0  0  0  0  0  0  0  0
   -0.1093    2.1178    0.0000 C   0  0  0  0  0  0  0  0  0  0  0  0
   -0.5942    2.7852    0.0000 N   0  0  0  0  0  0  0  0  0  0  0  0
   -2.0933    1.2928    0.0000 C   0  0  0  0  0  0  0  0  0  0  0  0
   -2.8078    1.7053    0.0000 C   0  0  0  0  0  0  0  0  0  0  0  0
   -3.5223    1.2928    0.0000 C   0  0  0  0  0  0  0  0  0  0  0  0
   -3.5223    0.4678    0.0000 C   0  0  0  0  0  0  0  0  0  0  0  0
   -2.8078    0.0553    0.0000 C   0  0  0  0  0  0  0  0  0  0  0  0
   -2.0933    0.4678    0.0000 C   0  0  0  0  0  0  0  0  0  0  0  0
   -4.2367    0.0553    0.0000 N   0  0  0  0  0  0  0  0  0  0  0  0
   -4.9512    0.4678    0.0000 C   0  0  0  0  0  0  0  0  0  0  0  0
   -5.6657    0.0553    0.0000 C   0  0  0  0  0  0  0  0  0  0  0  0
   -4.9512    1.2928    0.0000 O   0  0  0  0  0  0  0  0  0  0  0  0
    0.7157    2.1178    0.0000 C   0  0  0  0  0  0  0  0  0  0  0  0
    1.1282    1.4033    0.0000 C   0  0  0  0  0  0  0  0  0  0  0  0
    1.9532    1.4033    0.0000 C   0  0  0  0  0  0  0  0  0  0  0  0
    2.3657    2.1178    0.0000 C   0  0  0  0  0  0  0  0  0  0  0  0
    1.9532    2.8322    0.0000 C   0  0  0  0  0  0  0  0  0  0  0  0
    1.1282    2.8322    0.0000 C   0  0  0  0  0  0  0  0  0  0  0  0
    3.1907    2.1178    0.0000 N   0  0  0  0  0  0  0  0  0  0  0  0
    3.6032    1.4033    0.0000 C   0  0  0  0  0  0  0  0  0  0  0  0
    4.4282    1.4033    0.0000 N   0  0  0  0  0  0  0  0  0  0  0  0
    3.1907    0.6888    0.0000 S   0  0  0  0  0  0  0  0  0  0  0  0
    4.8407    2.1178    0.0000 C   0  0  0  0  0  0  0  0  0  0  0  0
    5.6657    2.1178    0.0000 C   0  0  0  0  0  0  0  0  0  0  0  0
    4.4282    2.8322    0.0000 C   0  0  0  0  0  0  0  0  0  0  0  0
   -1.3789    0.0553    0.0000 S   0  0  0  0  0  0  0  0  0  0  0  0
   -0.6644   -0.3572    0.0000 N   0  0  0  0  0  0  0  0  0  0  0  0
   -0.9664    0.7697    0.0000 O   0  0  0  0  0  0  0  0  0  0  0  0
   -1.7914   -0.6592    0.0000 O   0  0  0  0  0  0  0  0  0  0  0  0
   -0.6644   -1.1822    0.0000 C   0  0  1  0  0  0  0  0  0  0  0  0
    0.0501   -1.5947    0.0000 C   0  0  0  0  0  0  0  0  0  0  0  0
   -1.3789   -1.5947    0.0000 C   0  0  0  0  0  0  0  0  0  0  0  0
    0.7646   -1.1822    0.0000 C   0  0  0  0  0  0  0  0  0  0  0  0
    1.4790   -1.5947    0.0000 C   0  0  0  0  0  0  0  0  0  0  0  0
    2.1935   -1.1822    0.0000 C   0  0  0  0  0  0  0  0  0  0  0  0
    2.1935   -0.3572    0.0000 C   0  0  0  0  0  0  0  0  0  0  0  0
    1.4790    0.0553    0.0000 C   0  0  0  0  0  0  0  0  0  0  0  0
    0.7646   -0.3572    0.0000 C   0  0  0  0  0  0  0  0  0  0  0  0
   -2.0933   -1.1822    0.0000 O   0  0  0  0  0  0  0  0  0  0  0  0
   -1.3789   -2.4197    0.0000 O   0  0  0  0  0  0  0  0  0  0  0  0
   -2.0933   -2.8322    0.0000 C   0  0  0  0  0  0  0  0  0  0  0  0
  1  2  4  0  0  0  0
  2  3  4  0  0  0  0
  3  4  4  0  0  0  0
  4  5  4  0  0  0  0
  5  1  4  0  0  0  0
  2  6  1  0  0  0  0
  6  7  4  0  0  0  0
  7  8  4  0  0  0  0
  8  9  4  0  0  0  0
  9 10  4  0  0  0  0
 10 11  4  0  0  0  0
 11  6  4  0  0  0  0
  9 12  1  0  0  0  0
 12 13  1  0  0  0  0
 13 14  1  0  0  0  0
 13 15  2  0  0  0  0
  4 16  1  0  0  0  0
 16 17  4  0  0  0  0
 17 18  4  0  0  0  0
 18 19  4  0  0  0  0
 19 20  4  0  0  0  0
 20 21  4  0  0  0  0
 21 16  4  0  0  0  0
 19 22  1  0  0  0  0
 22 23  1  0  0  0  0
 23 24  1  0  0  0  0
 23 25  2  0  0  0  0
 24 26  1  0  0  0  0
 26 27  1  0  0  0  0
 26 28  1  0  0  0  0
 11 29  1  0  0  0  0
 29 30  1  0  0  0  0
 29 31  2  0  0  0  0
 29 32  2  0  0  0  0
 33 30  1  1  0  0  0
 33 34  1  0  0  0  0
 33 35  1  0  0  0  0
 34 36  1  0  0  0  0
 36 37  4  0  0  0  0
 37 38  4  0  0  0  0
 38 39  4  0  0  0  0
 39 40  4  0  0  0  0
 40 41  4  0  0  0  0
 41 36  4  0  0  0  0
 35 42  2  0  0  0  0
 35 43  1  0  0  0  0
 43 44  1  0  0  0  0
M  END
> <From>
www.bindingDB.org

> <BindingDB Reactant_set_id>
1155224

> <Ligand InChI>
InChI=1S/C31H33N5O5S3/c1-19(2)33-31(42)35-23-12-10-22(11-13-23)29-32-18-27(43-29)25-15-14-24(34-20(3)37)17-28(25)44(39,40)36-26(30(38)41-4)16-21-8-6-5-7-9-21/h5-15,17-19,26,36H,16H2,1-4H3,(H,34,37)(H2,33,35,42)/t26-/m0/s1

> <Ligand InChI Key>
LEEBMTOSGFOEKS-SANMLTNESA-N

> <BindingDB MonomerID>
546375

> <BindingDB Ligand Name>
US11291655, No D1

> <Target Name>
DNA repair protein RAD51 homolog 1

> <Target Source Organism According to Curator or DataSource>
Homo sapiens

> <Ki (nM)>


> <IC50 (nM)>


> <Kd (nM)>


> <EC50 (nM)>
>10000

> <kon (M-1-s-1)>


> <koff (s-1)>


> <pH>


> <Temp C>


> <Curation/DataSource>
US Patent

> <Article DOI>


> <BindingDB Entry DOI>
10.7270/Q2NG4TV0

> <PMID>


> <PubChem AID>
aid1806421

> <Patent Number>
US11291655

> <Authors>
Castro, AC; McComas, CC; Vacca, J

> <Date of publication>
4/5/2022

> <Date in BindingDB>
7/21/2022

> <Institution>
Cyteir Therapeutics, Inc.

> <Link to Ligand in BindingDB>
http://www.bindingdb.org/bind/chemsearch/marvin/MolStructure.jsp?monomerid=546375

> <Link to Ligand-Target Pair in BindingDB>
http://www.bindingdb.org/jsp/dbsearch/PrimarySearch_ki.jsp?energyterm=kJ/mole&tag=pol&polymerid=4676&target=DNA+repair+protein+RAD51+homolog+1&column=ki&startPg=0&Increment=50&submit=Search

> <Link to Ligand-Target Pair in BindingDB>
http://www.bindingdb.org/jsp/dbsearch/PrimarySearch_ki.jsp?energyterm=kJ/mole&tag=r21&monomerid=546375&enzyme=DNA+repair+protein+RAD51+homolog+1&column=ki&startPg=0&Increment=50&submit=Search

> <Ligand HET ID in PDB>


> <PDB ID(s) for Ligand-Target Complex>


> <PubChem CID of Ligand>
137412040

> <PubChem SID of Ligand>
469681071

> <ChEBI ID of Ligand>


> <ChEMBL ID of Ligand>


> <DrugBank ID of Ligand>


> <IUPHAR_GRAC ID of Ligand>


> <KEGG ID of Ligand>


> <ZINC ID of Ligand>


> <Number of Protein Chains in Target (bigger than 1 implies a multichain complex)>
1

> <BindingDB Target Chain Sequence>
MAMQMQLEANADTSVEEESFGPQPISRLEQCGINANDVKKLEEAGFHTVEAVAYAPKKELINIKGISEAKADKILAEAAKLVPMGFTTATEFHQRRSEIIQITTGSKELDKLLQGGIETGSITEMFGEFRTGKTQICHTLAVTCQLPIDRGGGEGKAMYIDTEGTFRPERLLAVAERYGLSGSDVLDNVAYARAFNTDHQTQLLYQASAMMVESRYALLIVDSATALYRTDYSGRGELSARQMHLARFLRMLLRLADEFGVAVVITNQVVAQVDGAAMFAADPKKPIGGNIIAHASTTRLYLRKGRGETRICKIYDSPCLPEAEAMFAINADGVGDAKD

> <PDB ID(s) of Target Chain>
1N0W,5JZC,5NP7,5NWL,8BQ2,8BR2,8BSC

> <UniProt (SwissProt) Recommended Name of Target Chain>
DNA repair protein RAD51 homolog 1

> <UniProt (SwissProt) Entry Name of Target Chain>
RAD51_HUMAN

> <UniProt (SwissProt) Primary ID of Target Chain>
Q06609

> <UniProt (SwissProt) Secondary ID(s) of Target Chain>
B0FXP0 B2R8T6 Q6FHX9 Q6ZNA8 Q9BV60

> <UniProt (SwissProt) Alternative ID(s) of Target Chain>


> <UniProt (TrEMBL) Submitted Name of Target Chain>


> <UniProt (TrEMBL) Entry Name of Target Chain>


> <UniProt (TrEMBL) Primary ID of Target Chain>


> <UniProt (TrEMBL) Secondary ID(s) of Target Chain>


> <UniProt (TrEMBL) Alternative ID(s) of Target Chain>


$$$$
00235001.cdx
  Mrv0541 07212217012D          

 34 36  0  0  0  0            999 V2000
   -1.3789    1.7053    0.0000 C   0  0  0  0  0  0  0  0  0  0  0  0
   -1.3789    0.8803    0.0000 C   0  0  0  0  0  0  0  0  0  0  0  0
   -0.5942    0.6253    0.0000 S   0  0  0  0  0  0  0  0  0  0  0  0
   -0.1093    1.2928    0.0000 C   0  0  0  0  0  0  0  0  0  0  0  0
   -0.5942    1.9602    0.0000 N   0  0  0  0  0  0  0  0  0  0  0  0
   -2.0933    0.4678    0.0000 C   0  0  0  0  0  0  0  0  0  0  0  0
   -2.8078    0.8803    0.0000 C   0  0  0  0  0  0  0  0  0  0  0  0
   -3.5223    0.4678    0.0000 C   0  0  0  0  0  0  0  0  0  0  0  0
   -3.5223   -0.3572    0.0000 C   0  0  0  0  0  0  0  0  0  0  0  0
   -2.8078   -0.7697    0.0000 C   0  0  0  0  0  0  0  0  0  0  0  0
   -2.0933   -0.3572    0.0000 C   0  0  0  0  0  0  0  0  0  0  0  0
   -4.2367   -0.7697    0.0000 N   0  0  0  0  0  0  0  0  0  0  0  0
   -4.9512   -0.3572    0.0000 C   0  0  0  0  0  0  0  0  0  0  0  0
   -5.6657   -0.7697    0.0000 C   0  0  0  0  0  0  0  0  0  0  0  0
   -4.9512    0.4678    0.0000 O   0  0  0  0  0  0  0  0  0  0  0  0
    0.7157    1.2928    0.0000 C   0  0  0  0  0  0  0  0  0  0  0  0
    1.1282    0.5783    0.0000 C   0  0  0  0  0  0  0  0  0  0  0  0
    1.9532    0.5783    0.0000 C   0  0  0  0  0  0  0  0  0  0  0  0
    2.3657    1.2928    0.0000 C   0  0  0  0  0  0  0  0  0  0  0  0
    1.9532    2.0072    0.0000 C   0  0  0  0  0  0  0  0  0  0  0  0
    1.1282    2.0072    0.0000 C   0  0  0  0  0  0  0  0  0  0  0  0
    3.1907    1.2928    0.0000 N   0  0  0  0  0  0  0  0  0  0  0  0
    3.6032    0.5783    0.0000 C   0  0  0  0  0  0  0  0  0  0  0  0
    4.4282    0.5783    0.0000 N   0  0  0  0  0  0  0  0  0  0  0  0
    3.1907   -0.1362    0.0000 S   0  0  0  0  0  0  0  0  0  0  0  0
    4.8407    1.2928    0.0000 C   0  0  0  0  0  0  0  0  0  0  0  0
    5.6657    1.2928    0.0000 C   0  0  0  0  0  0  0  0  0  0  0  0
    4.4282    2.0072    0.0000 C   0  0  0  0  0  0  0  0  0  0  0  0
   -1.3789   -0.7697    0.0000 S   0  0  0  0  0  0  0  0  0  0  0  0
   -0.6644   -1.1822    0.0000 N   0  0  0  0  0  0  0  0  0  0  0  0
   -0.9664   -0.0553    0.0000 O   0  0  0  0  0  0  0  0  0  0  0  0
   -1.7914   -1.4842    0.0000 O   0  0  0  0  0  0  0  0  0  0  0  0
   -0.6644   -2.0072    0.0000 C   0  0  0  0  0  0  0  0  0  0  0  0
    0.0501   -0.7697    0.0000 C   0  0  0  0  0  0  0  0  0  0  0  0
  1  2  4  0  0  0  0
  2  3  4  0  0  0  0
  3  4  4  0  0  0  0
  4  5  4  0  0  0  0
  5  1  4  0  0  0  0
  2  6  1  0  0  0  0
  6  7  4  0  0  0  0
  7  8  4  0  0  0  0
  8  9  4  0  0  0  0
  9 10  4  0  0  0  0
 10 11  4  0  0  0  0
 11  6  4  0  0  0  0
  9 12  1  0  0  0  0
 12 13  1  0  0  0  0
 13 14  1  0  0  0  0
 13 15  2  0  0  0  0
  4 16  1  0  0  0  0
 16 17  4  0  0  0  0
 17 18  4  0  0  0  0
 18 19  4  0  0  0  0
 19 20  4  0  0  0  0
 20 21  4  0  0  0  0
 21 16  4  0  0  0  0
 19 22  1  0  0  0  0
 22 23  1  0  0  0  0
 23 24  1  0  0  0  0
 23 25  2  0  0  0  0
 24 26  1  0  0  0  0
 26 27  1  0  0  0  0
 26 28  1  0  0  0  0
 11 29  1  0  0  0  0
 29 30  1  0  0  0  0
 29 31  2  0  0  0  0
 29 32  2  0  0  0  0
 30 33  1  0  0  0  0
 30 34  1  0  0  0  0
M  END
> <From>
www.bindingDB.org

> <BindingDB Reactant_set_id>
1155225

> <Ligand InChI>
InChI=1S/C23H27N5O3S3/c1-14(2)25-23(32)27-17-8-6-16(7-9-17)22-24-13-20(33-22)19-11-10-18(26-15(3)29)12-21(19)34(30,31)28(4)5/h6-14H,1-5H3,(H,26,29)(H2,25,27,32)

> <Ligand InChI Key>
VLXWUKZEAXBBMF-UHFFFAOYSA-N

> <BindingDB MonomerID>
546376

> <BindingDB Ligand Name>
US11291655, No D10

> <Target Name>
DNA repair protein RAD51 homolog 1

> <Target Source Organism According to Curator or DataSource>
Homo sapiens

> <Ki (nM)>


> <IC50 (nM)>


> <Kd (nM)>


> <EC50 (nM)>
<1000

> <kon (M-1-s-1)>


> <koff (s-1)>


> <pH>


> <Temp C>


> <Curation/DataSource>
US Patent

> <Article DOI>


> <BindingDB Entry DOI>
10.7270/Q2NG4TV0

> <PMID>


> <PubChem AID>
aid1806421

> <Patent Number>
US11291655

> <Authors>
Castro, AC; McComas, CC; Vacca, J

> <Date of publication>
4/5/2022

> <Date in BindingDB>
7/21/2022

> <Institution>
Cyteir Therapeutics, Inc.

> <Link to Ligand in BindingDB>
http://www.bindingdb.org/bind/chemsearch/marvin/MolStructure.jsp?monomerid=546376

> <Link to Ligand-Target Pair in BindingDB>
http://www.bindingdb.org/jsp/dbsearch/PrimarySearch_ki.jsp?energyterm=kJ/mole&tag=pol&polymerid=4676&target=DNA+repair+protein+RAD51+homolog+1&column=ki&startPg=0&Increment=50&submit=Search

> <Link to Ligand-Target Pair in BindingDB>
http://www.bindingdb.org/jsp/dbsearch/PrimarySearch_ki.jsp?energyterm=kJ/mole&tag=r21&monomerid=546376&enzyme=DNA+repair+protein+RAD51+homolog+1&column=ki&startPg=0&Increment=50&submit=Search

> <Ligand HET ID in PDB>


> <PDB ID(s) for Ligand-Target Complex>


> <PubChem CID of Ligand>
137412058

> <PubChem SID of Ligand>
469681072

> <ChEBI ID of Ligand>


> <ChEMBL ID of Ligand>


> <DrugBank ID of Ligand>


> <IUPHAR_GRAC ID of Ligand>


> <KEGG ID of Ligand>


> <ZINC ID of Ligand>


> <Number of Protein Chains in Target (bigger than 1 implies a multichain complex)>
1

> <BindingDB Target Chain Sequence>
MAMQMQLEANADTSVEEESFGPQPISRLEQCGINANDVKKLEEAGFHTVEAVAYAPKKELINIKGISEAKADKILAEAAKLVPMGFTTATEFHQRRSEIIQITTGSKELDKLLQGGIETGSITEMFGEFRTGKTQICHTLAVTCQLPIDRGGGEGKAMYIDTEGTFRPERLLAVAERYGLSGSDVLDNVAYARAFNTDHQTQLLYQASAMMVESRYALLIVDSATALYRTDYSGRGELSARQMHLARFLRMLLRLADEFGVAVVITNQVVAQVDGAAMFAADPKKPIGGNIIAHASTTRLYLRKGRGETRICKIYDSPCLPEAEAMFAINADGVGDAKD

> <PDB ID(s) of Target Chain>
1N0W,5JZC,5NP7,5NWL,8BQ2,8BR2,8BSC

> <UniProt (SwissProt) Recommended Name of Target Chain>
DNA repair protein RAD51 homolog 1

> <UniProt (SwissProt) Entry Name of Target Chain>
RAD51_HUMAN

> <UniProt (SwissProt) Primary ID of Target Chain>
Q06609

> <UniProt (SwissProt) Secondary ID(s) of Target Chain>
B0FXP0 B2R8T6 Q6FHX9 Q6ZNA8 Q9BV60

> <UniProt (SwissProt) Alternative ID(s) of Target Chain>


> <UniProt (TrEMBL) Submitted Name of Target Chain>


> <UniProt (TrEMBL) Entry Name of Target Chain>


> <UniProt (TrEMBL) Primary ID of Target Chain>


> <UniProt (TrEMBL) Secondary ID(s) of Target Chain>


> <UniProt (TrEMBL) Alternative ID(s) of Target Chain>


$$$$
00236001.cdx
  Mrv0541 07212217012D          

 37 39  0  0  0  0            999 V2000
   -1.3789    2.3240    0.0000 C   0  0  0  0  0  0  0  0  0  0  0  0
   -1.3789    1.4990    0.0000 C   0  0  0  0  0  0  0  0  0  0  0  0
   -0.5942    1.2441    0.0000 S   0  0  0  0  0  0  0  0  0  0  0  0
   -0.1093    1.9115    0.0000 C   0  0  0  0  0  0  0  0  0  0  0  0
   -0.5942    2.5790    0.0000 N   0  0  0  0  0  0  0  0  0  0  0  0
   -2.0933    1.0865    0.0000 C   0  0  0  0  0  0  0  0  0  0  0  0
   -2.8078    1.4990    0.0000 C   0  0  0  0  0  0  0  0  0  0  0  0
   -3.5223    1.0865    0.0000 C   0  0  0  0  0  0  0  0  0  0  0  0
   -3.5223    0.2615    0.0000 C   0  0  0  0  0  0  0  0  0  0  0  0
   -2.8078   -0.1510    0.0000 C   0  0  0  0  0  0  0  0  0  0  0  0
   -2.0933    0.2615    0.0000 C   0  0  0  0  0  0  0  0  0  0  0  0
   -4.2367   -0.1510    0.0000 N   0  0  0  0  0  0  0  0  0  0  0  0
   -4.9512    0.2615    0.0000 C   0  0  0  0  0  0  0  0  0  0  0  0
   -5.6657   -0.1510    0.0000 C   0  0  0  0  0  0  0  0  0  0  0  0
   -4.9512    1.0865    0.0000 O   0  0  0  0  0  0  0  0  0  0  0  0
    0.7157    1.9115    0.0000 C   0  0  0  0  0  0  0  0  0  0  0  0
    1.1282    1.1970    0.0000 C   0  0  0  0  0  0  0  0  0  0  0  0
    1.9532    1.1970    0.0000 C   0  0  0  0  0  0  0  0  0  0  0  0
    2.3657    1.9115    0.0000 C   0  0  0  0  0  0  0  0  0  0  0  0
    1.9532    2.6260    0.0000 C   0  0  0  0  0  0  0  0  0  0  0  0
    1.1282    2.6260    0.0000 C   0  0  0  0  0  0  0  0  0  0  0  0
    3.1907    1.9115    0.0000 N   0  0  0  0  0  0  0  0  0  0  0  0
    3.6032    1.1970    0.0000 C   0  0  0  0  0  0  0  0  0  0  0  0
    4.4282    1.1970    0.0000 N   0  0  0  0  0  0  0  0  0  0  0  0
    3.1907    0.4826    0.0000 S   0  0  0  0  0  0  0  0  0  0  0  0
    4.8407    1.9115    0.0000 C   0  0  0  0  0  0  0  0  0  0  0  0
    5.6657    1.9115    0.0000 C   0  0  0  0  0  0  0  0  0  0  0  0
    4.4282    2.6260    0.0000 C   0  0  0  0  0  0  0  0  0  0  0  0
   -1.3789   -0.1510    0.0000 S   0  0  0  0  0  0  0  0  0  0  0  0
   -0.6644   -0.5635    0.0000 N   0  0  0  0  0  0  0  0  0  0  0  0
   -0.9664    0.5635    0.0000 O   0  0  0  0  0  0  0  0  0  0  0  0
   -1.7914   -0.8655    0.0000 O   0  0  0  0  0  0  0  0  0  0  0  0
   -0.6644   -1.3885    0.0000 C   0  0  0  0  0  0  0  0  0  0  0  0
    0.0501   -1.8010    0.0000 C   0  0  0  0  0  0  0  0  0  0  0  0
   -1.3789   -1.8010    0.0000 C   0  0  0  0  0  0  0  0  0  0  0  0
    0.7646   -1.3885    0.0000 O   0  0  0  0  0  0  0  0  0  0  0  0
   -1.3789   -2.6260    0.0000 O   0  0  0  0  0  0  0  0  0  0  0  0
  1  2  4  0  0  0  0
  2  3  4  0  0  0  0
  3  4  4  0  0  0  0
  4  5  4  0  0  0  0
  5  1  4  0  0  0  0
  2  6  1  0  0  0  0
  6  7  4  0  0  0  0
  7  8  4  0  0  0  0
  8  9  4  0  0  0  0
  9 10  4  0  0  0  0
 10 11  4  0  0  0  0
 11  6  4  0  0  0  0
  9 12  1  0  0  0  0
 12 13  1  0  0  0  0
 13 14  1  0  0  0  0
 13 15  2  0  0  0  0
  4 16  1  0  0  0  0
 16 17  4  0  0  0  0
 17 18  4  0  0  0  0
 18 19  4  0  0  0  0
 19 20  4  0  0  0  0
 20 21  4  0  0  0  0
 21 16  4  0  0  0  0
 19 22  1  0  0  0  0
 22 23  1  0  0  0  0
 23 24  1  0  0  0  0
 23 25  2  0  0  0  0
 24 26  1  0  0  0  0
 26 27  1  0  0  0  0
 26 28  1  0  0  0  0
 11 29  1  0  0  0  0
 29 30  1  0  0  0  0
 29 31  2  0  0  0  0
 29 32  2  0  0  0  0
 30 33  1  0  0  0  0
 33 34  1  0  0  0  0
 33 35  1  0  0  0  0
 34 36  1  0  0  0  0
 35 37  1  0  0  0  0
M  END
> <From>
www.bindingDB.org

> <BindingDB Reactant_set_id>
1155226

> <Ligand InChI>
InChI=1S/C24H29N5O5S3/c1-14(2)26-24(35)28-17-6-4-16(5-7-17)23-25-11-21(36-23)20-9-8-18(27-15(3)32)10-22(20)37(33,34)29-19(12-30)13-31/h4-11,14,19,29-31H,12-13H2,1-3H3,(H,27,32)(H2,26,28,35)

> <Ligand InChI Key>
XQDHIMJYCMMDKC-UHFFFAOYSA-N

> <BindingDB MonomerID>
546377

> <BindingDB Ligand Name>
US11291655, No D11

> <Target Name>
DNA repair protein RAD51 homolog 1

> <Target Source Organism According to Curator or DataSource>
Homo sapiens

> <Ki (nM)>


> <IC50 (nM)>


> <Kd (nM)>


> <EC50 (nM)>
>10000

> <kon (M-1-s-1)>


> <koff (s-1)>


> <pH>


> <Temp C>


> <Curation/DataSource>
US Patent

> <Article DOI>


> <BindingDB Entry DOI>
10.7270/Q2NG4TV0

> <PMID>


> <PubChem AID>
aid1806421

> <Patent Number>
US11291655

> <Authors>
Castro, AC; McComas, CC; Vacca, J

> <Date of publication>
4/5/2022

> <Date in BindingDB>
7/21/2022

> <Institution>
Cyteir Therapeutics, Inc.

> <Link to Ligand in BindingDB>
http://www.bindingdb.org/bind/chemsearch/marvin/MolStructure.jsp?monomerid=546377

> <Link to Ligand-Target Pair in BindingDB>
http://www.bindingdb.org/jsp/dbsearch/PrimarySearch_ki.jsp?energyterm=kJ/mole&tag=pol&polymerid=4676&target=DNA+repair+protein+RAD51+homolog+1&column=ki&startPg=0&Increment=50&submit=Search

> <Link to Ligand-Target Pair in BindingDB>
http://www.bindingdb.org/jsp/dbsearch/PrimarySearch_ki.jsp?energyterm=kJ/mole&tag=r21&monomerid=546377&enzyme=DNA+repair+protein+RAD51+homolog+1&column=ki&startPg=0&Increment=50&submit=Search

> <Ligand HET ID in PDB>


> <PDB ID(s) for Ligand-Target Complex>


> <PubChem CID of Ligand>
137412057

> <PubChem SID of Ligand>
469681073

> <ChEBI ID of Ligand>


> <ChEMBL ID of Ligand>


> <DrugBank ID of Ligand>


> <IUPHAR_GRAC ID of Ligand>


> <KEGG ID of Ligand>


> <ZINC ID of Ligand>


> <Number of Protein Chains in Target (bigger than 1 implies a multichain complex)>
1

> <BindingDB Target Chain Sequence>
MAMQMQLEANADTSVEEESFGPQPISRLEQCGINANDVKKLEEAGFHTVEAVAYAPKKELINIKGISEAKADKILAEAAKLVPMGFTTATEFHQRRSEIIQITTGSKELDKLLQGGIETGSITEMFGEFRTGKTQICHTLAVTCQLPIDRGGGEGKAMYIDTEGTFRPERLLAVAERYGLSGSDVLDNVAYARAFNTDHQTQLLYQASAMMVESRYALLIVDSATALYRTDYSGRGELSARQMHLARFLRMLLRLADEFGVAVVITNQVVAQVDGAAMFAADPKKPIGGNIIAHASTTRLYLRKGRGETRICKIYDSPCLPEAEAMFAINADGVGDAKD

> <PDB ID(s) of Target Chain>
1N0W,5JZC,5NP7,5NWL,8BQ2,8BR2,8BSC

> <UniProt (SwissProt) Recommended Name of Target Chain>
DNA repair protein RAD51 homolog 1

> <UniProt (SwissProt) Entry Name of Target Chain>
RAD51_HUMAN

> <UniProt (SwissProt) Primary ID of Target Chain>
Q06609

> <UniProt (SwissProt) Secondary ID(s) of Target Chain>
B0FXP0 B2R8T6 Q6FHX9 Q6ZNA8 Q9BV60

> <UniProt (SwissProt) Alternative ID(s) of Target Chain>


> <UniProt (TrEMBL) Submitted Name of Target Chain>


> <UniProt (TrEMBL) Entry Name of Target Chain>


> <UniProt (TrEMBL) Primary ID of Target Chain>


> <UniProt (TrEMBL) Secondary ID(s) of Target Chain>


> <UniProt (TrEMBL) Alternative ID(s) of Target Chain>


$$$$
00237001.cdx
  Mrv0541 07212217012D          

 39 42  0  0  0  0            999 V2000
   -1.3789    2.5303    0.0000 C   0  0  0  0  0  0  0  0  0  0  0  0
   -1.3789    1.7053    0.0000 C   0  0  0  0  0  0  0  0  0  0  0  0
   -0.5942    1.4503    0.0000 S   0  0  0  0  0  0  0  0  0  0  0  0
   -0.1093    2.1178    0.0000 C   0  0  0  0  0  0  0  0  0  0  0  0
   -0.5942    2.7852    0.0000 N   0  0  0  0  0  0  0  0  0  0  0  0
   -2.0933    1.2928    0.0000 C   0  0  0  0  0  0  0  0  0  0  0  0
   -2.8078    1.7053    0.0000 C   0  0  0  0  0  0  0  0  0  0  0  0
   -3.5223    1.2928    0.0000 C   0  0  0  0  0  0  0  0  0  0  0  0
   -3.5223    0.4678    0.0000 C   0  0  0  0  0  0  0  0  0  0  0  0
   -2.8078    0.0553    0.0000 C   0  0  0  0  0  0  0  0  0  0  0  0
   -2.0933    0.4678    0.0000 C   0  0  0  0  0  0  0  0  0  0  0  0
   -4.2367    0.0553    0.0000 N   0  0  0  0  0  0  0  0  0  0  0  0
   -4.9512    0.4678    0.0000 C   0  0  0  0  0  0  0  0  0  0  0  0
   -5.6657    0.0553    0.0000 C   0  0  0  0  0  0  0  0  0  0  0  0
   -4.9512    1.2928    0.0000 O   0  0  0  0  0  0  0  0  0  0  0  0
    0.7157    2.1178    0.0000 C   0  0  0  0  0  0  0  0  0  0  0  0
    1.1282    1.4033    0.0000 C   0  0  0  0  0  0  0  0  0  0  0  0
    1.9532    1.4033    0.0000 C   0  0  0  0  0  0  0  0  0  0  0  0
    2.3657    2.1178    0.0000 C   0  0  0  0  0  0  0  0  0  0  0  0
    1.9532    2.8322    0.0000 C   0  0  0  0  0  0  0  0  0  0  0  0
    1.1282    2.8322    0.0000 C   0  0  0  0  0  0  0  0  0  0  0  0
    3.1907    2.1178    0.0000 N   0  0  0  0  0  0  0  0  0  0  0  0
    3.6032    1.4033    0.0000 C   0  0  0  0  0  0  0  0  0  0  0  0
    4.4282    1.4033    0.0000 N   0  0  0  0  0  0  0  0  0  0  0  0
    3.1907    0.6888    0.0000 S   0  0  0  0  0  0  0  0  0  0  0  0
    4.8407    2.1178    0.0000 C   0  0  0  0  0  0  0  0  0  0  0  0
    5.6657    2.1178    0.0000 C   0  0  0  0  0  0  0  0  0  0  0  0
    4.4282    2.8322    0.0000 C   0  0  0  0  0  0  0  0  0  0  0  0
   -1.3789    0.0553    0.0000 S   0  0  0  0  0  0  0  0  0  0  0  0
   -0.6644   -0.3572    0.0000 N   0  0  0  0  0  0  0  0  0  0  0  0
   -0.9664    0.7697    0.0000 O   0  0  0  0  0  0  0  0  0  0  0  0
   -1.7914   -0.6592    0.0000 O   0  0  0  0  0  0  0  0  0  0  0  0
   -0.6644   -1.1822    0.0000 C   0  0  0  0  0  0  0  0  0  0  0  0
    0.0501   -1.5947    0.0000 C   0  0  0  0  0  0  0  0  0  0  0  0
    0.0501   -2.4197    0.0000 C   0  0  0  0  0  0  0  0  0  0  0  0
    0.7646   -2.8322    0.0000 C   0  0  0  0  0  0  0  0  0  0  0  0
    1.4790   -2.4197    0.0000 N   0  0  0  0  0  0  0  0  0  0  0  0
    1.4790   -1.5947    0.0000 C   0  0  0  0  0  0  0  0  0  0  0  0
    0.7646   -1.1822    0.0000 C   0  0  0  0  0  0  0  0  0  0  0  0
  1  2  4  0  0  0  0
  2  3  4  0  0  0  0
  3  4  4  0  0  0  0
  4  5  4  0  0  0  0
  5  1  4  0  0  0  0
  2  6  1  0  0  0  0
  6  7  4  0  0  0  0
  7  8  4  0  0  0  0
  8  9  4  0  0  0  0
  9 10  4  0  0  0  0
 10 11  4  0  0  0  0
 11  6  4  0  0  0  0
  9 12  1  0  0  0  0
 12 13  1  0  0  0  0
 13 14  1  0  0  0  0
 13 15  2  0  0  0  0
  4 16  1  0  0  0  0
 16 17  4  0  0  0  0
 17 18  4  0  0  0  0
 18 19  4  0  0  0  0
 19 20  4  0  0  0  0
 20 21  4  0  0  0  0
 21 16  4  0  0  0  0
 19 22  1  0  0  0  0
 22 23  1  0  0  0  0
 23 24  1  0  0  0  0
 23 25  2  0  0  0  0
 24 26  1  0  0  0  0
 26 27  1  0  0  0  0
 26 28  1  0  0  0  0
 11 29  1  0  0  0  0
 29 30  1  0  0  0  0
 29 31  2  0  0  0  0
 29 32  2  0  0  0  0
 30 33  1  0  0  0  0
 33 34  1  0  0  0  0
 34 35  4  0  0  0  0
 35 36  4  0  0  0  0
 36 37  4  0  0  0  0
 37 38  4  0  0  0  0
 38 39  4  0  0  0  0
 39 34  4  0  0  0  0
M  END
> <From>
www.bindingDB.org

> <BindingDB Reactant_set_id>
1155227

> <Ligand InChI>
InChI=1S/C27H28N6O3S3/c1-17(2)31-27(37)33-21-6-4-20(5-7-21)26-29-16-24(38-26)23-9-8-22(32-18(3)34)14-25(23)39(35,36)30-15-19-10-12-28-13-11-19/h4-14,16-17,30H,15H2,1-3H3,(H,32,34)(H2,31,33,37)

> <Ligand InChI Key>
BUPYZRBCOHSNAE-UHFFFAOYSA-N

> <BindingDB MonomerID>
546378

> <BindingDB Ligand Name>
US11291655, No D12

> <Target Name>
DNA repair protein RAD51 homolog 1

> <Target Source Organism According to Curator or DataSource>
Homo sapiens

> <Ki (nM)>


> <IC50 (nM)>


> <Kd (nM)>


> <EC50 (nM)>
>10000

> <kon (M-1-s-1)>


> <koff (s-1)>


> <pH>


> <Temp C>


> <Curation/DataSource>
US Patent

> <Article DOI>


> <BindingDB Entry DOI>
10.7270/Q2NG4TV0

> <PMID>


> <PubChem AID>
aid1806421

> <Patent Number>
US11291655

> <Authors>
Castro, AC; McComas, CC; Vacca, J

> <Date of publication>
4/5/2022

> <Date in BindingDB>
7/21/2022

> <Institution>
Cyteir Therapeutics, Inc.

> <Link to Ligand in BindingDB>
http://www.bindingdb.org/bind/chemsearch/marvin/MolStructure.jsp?monomerid=546378

> <Link to Ligand-Target Pair in BindingDB>
http://www.bindingdb.org/jsp/dbsearch/PrimarySearch_ki.jsp?energyterm=kJ/mole&tag=pol&polymerid=4676&target=DNA+repair+protein+RAD51+homolog+1&column=ki&startPg=0&Increment=50&submit=Search

> <Link to Ligand-Target Pair in BindingDB>
http://www.bindingdb.org/jsp/dbsearch/PrimarySearch_ki.jsp?energyterm=kJ/mole&tag=r21&monomerid=546378&enzyme=DNA+repair+protein+RAD51+homolog+1&column=ki&startPg=0&Increment=50&submit=Search

> <Ligand HET ID in PDB>


> <PDB ID(s) for Ligand-Target Complex>


> <PubChem CID of Ligand>
137412059

> <PubChem SID of Ligand>
469681074

> <ChEBI ID of Ligand>


> <ChEMBL ID of Ligand>


> <DrugBank ID of Ligand>


> <IUPHAR_GRAC ID of Ligand>


> <KEGG ID of Ligand>


> <ZINC ID of Ligand>


> <Number of Protein Chains in Target (bigger than 1 implies a multichain complex)>
1

> <BindingDB Target Chain Sequence>
MAMQMQLEANADTSVEEESFGPQPISRLEQCGINANDVKKLEEAGFHTVEAVAYAPKKELINIKGISEAKADKILAEAAKLVPMGFTTATEFHQRRSEIIQITTGSKELDKLLQGGIETGSITEMFGEFRTGKTQICHTLAVTCQLPIDRGGGEGKAMYIDTEGTFRPERLLAVAERYGLSGSDVLDNVAYARAFNTDHQTQLLYQASAMMVESRYALLIVDSATALYRTDYSGRGELSARQMHLARFLRMLLRLADEFGVAVVITNQVVAQVDGAAMFAADPKKPIGGNIIAHASTTRLYLRKGRGETRICKIYDSPCLPEAEAMFAINADGVGDAKD

> <PDB ID(s) of Target Chain>
1N0W,5JZC,5NP7,5NWL,8BQ2,8BR2,8BSC

> <UniProt (SwissProt) Recommended Name of Target Chain>
DNA repair protein RAD51 homolog 1

> <UniProt (SwissProt) Entry Name of Target Chain>
RAD51_HUMAN

> <UniProt (SwissProt) Primary ID of Target Chain>
Q06609

> <UniProt (SwissProt) Secondary ID(s) of Target Chain>
B0FXP0 B2R8T6 Q6FHX9 Q6ZNA8 Q9BV60

> <UniProt (SwissProt) Alternative ID(s) of Target Chain>


> <UniProt (TrEMBL) Submitted Name of Target Chain>


> <UniProt (TrEMBL) Entry Name of Target Chain>


> <UniProt (TrEMBL) Primary ID of Target Chain>


> <UniProt (TrEMBL) Secondary ID(s) of Target Chain>


> <UniProt (TrEMBL) Alternative ID(s) of Target Chain>


$$$$
00238001.cdx
  Mrv0541 07212217012D          

 36 39  0  0  0  0            999 V2000
   -1.3789    1.8327    0.0000 C   0  0  0  0  0  0  0  0  0  0  0  0
   -1.3789    1.0077    0.0000 C   0  0  0  0  0  0  0  0  0  0  0  0
   -0.5942    0.7528    0.0000 S   0  0  0  0  0  0  0  0  0  0  0  0
   -0.1093    1.4202    0.0000 C   0  0  0  0  0  0  0  0  0  0  0  0
   -0.5942    2.0877    0.0000 N   0  0  0  0  0  0  0  0  0  0  0  0
   -2.0933    0.5952    0.0000 C   0  0  0  0  0  0  0  0  0  0  0  0
   -2.8078    1.0077    0.0000 C   0  0  0  0  0  0  0  0  0  0  0  0
   -3.5223    0.5952    0.0000 C   0  0  0  0  0  0  0  0  0  0  0  0
   -3.5223   -0.2298    0.0000 C   0  0  0  0  0  0  0  0  0  0  0  0
   -2.8078   -0.6423    0.0000 C   0  0  0  0  0  0  0  0  0  0  0  0
   -2.0933   -0.2298    0.0000 C   0  0  0  0  0  0  0  0  0  0  0  0
   -4.2367   -0.6423    0.0000 N   0  0  0  0  0  0  0  0  0  0  0  0
   -4.9512   -0.2298    0.0000 C   0  0  0  0  0  0  0  0  0  0  0  0
   -5.6657   -0.6423    0.0000 C   0  0  0  0  0  0  0  0  0  0  0  0
   -4.9512    0.5952    0.0000 O   0  0  0  0  0  0  0  0  0  0  0  0
    0.7157    1.4202    0.0000 C   0  0  0  0  0  0  0  0  0  0  0  0
    1.1282    0.7058    0.0000 C   0  0  0  0  0  0  0  0  0  0  0  0
    1.9532    0.7058    0.0000 C   0  0  0  0  0  0  0  0  0  0  0  0
    2.3657    1.4202    0.0000 C   0  0  0  0  0  0  0  0  0  0  0  0
    1.9532    2.1347    0.0000 C   0  0  0  0  0  0  0  0  0  0  0  0
    1.1282    2.1347    0.0000 C   0  0  0  0  0  0  0  0  0  0  0  0
    3.1907    1.4202    0.0000 N   0  0  0  0  0  0  0  0  0  0  0  0
    3.6032    0.7058    0.0000 C   0  0  0  0  0  0  0  0  0  0  0  0
    4.4282    0.7058    0.0000 N   0  0  0  0  0  0  0  0  0  0  0  0
    3.1907   -0.0087    0.0000 S   0  0  0  0  0  0  0  0  0  0  0  0
    4.8407    1.4202    0.0000 C   0  0  0  0  0  0  0  0  0  0  0  0
    5.6657    1.4202    0.0000 C   0  0  0  0  0  0  0  0  0  0  0  0
    4.4282    2.1347    0.0000 C   0  0  0  0  0  0  0  0  0  0  0  0
   -1.3789   -0.6423    0.0000 S   0  0  0  0  0  0  0  0  0  0  0  0
   -0.6644   -1.0548    0.0000 N   0  0  0  0  0  0  0  0  0  0  0  0
   -0.9664    0.0722    0.0000 O   0  0  0  0  0  0  0  0  0  0  0  0
   -1.7914   -1.3567    0.0000 O   0  0  0  0  0  0  0  0  0  0  0  0
   -0.6644   -1.8798    0.0000 C   0  0  0  0  0  0  0  0  0  0  0  0
    0.1202   -2.1347    0.0000 C   0  0  0  0  0  0  0  0  0  0  0  0
    0.6052   -1.4673    0.0000 C   0  0  0  0  0  0  0  0  0  0  0  0
    0.1202   -0.7998    0.0000 C   0  0  0  0  0  0  0  0  0  0  0  0
  1  2  4  0  0  0  0
  2  3  4  0  0  0  0
  3  4  4  0  0  0  0
  4  5  4  0  0  0  0
  5  1  4  0  0  0  0
  2  6  1  0  0  0  0
  6  7  4  0  0  0  0
  7  8  4  0  0  0  0
  8  9  4  0  0  0  0
  9 10  4  0  0  0  0
 10 11  4  0  0  0  0
 11  6  4  0  0  0  0
  9 12  1  0  0  0  0
 12 13  1  0  0  0  0
 13 14  1  0  0  0  0
 13 15  2  0  0  0  0
  4 16  1  0  0  0  0
 16 17  4  0  0  0  0
 17 18  4  0  0  0  0
 18 19  4  0  0  0  0
 19 20  4  0  0  0  0
 20 21  4  0  0  0  0
 21 16  4  0  0  0  0
 19 22  1  0  0  0  0
 22 23  1  0  0  0  0
 23 24  1  0  0  0  0
 23 25  2  0  0  0  0
 24 26  1  0  0  0  0
 26 27  1  0  0  0  0
 26 28  1  0  0  0  0
 11 29  1  0  0  0  0
 29 30  1  0  0  0  0
 29 31  2  0  0  0  0
 29 32  2  0  0  0  0
 30 33  1  0  0  0  0
 33 34  1  0  0  0  0
 34 35  1  0  0  0  0
 35 36  1  0  0  0  0
 36 30  1  0  0  0  0
M  END
> <From>
www.bindingDB.org

> <BindingDB Reactant_set_id>
1155228

> <Ligand InChI>
InChI=1S/C25H29N5O3S3/c1-16(2)27-25(34)29-19-8-6-18(7-9-19)24-26-15-22(35-24)21-11-10-20(28-17(3)31)14-23(21)36(32,33)30-12-4-5-13-30/h6-11,14-16H,4-5,12-13H2,1-3H3,(H,28,31)(H2,27,29,34)

> <Ligand InChI Key>
OQIYQTYQYMTSGE-UHFFFAOYSA-N

> <BindingDB MonomerID>
546379

> <BindingDB Ligand Name>
US11291655, No D13

> <Target Name>
DNA repair protein RAD51 homolog 1

> <Target Source Organism According to Curator or DataSource>
Homo sapiens

> <Ki (nM)>


> <IC50 (nM)>


> <Kd (nM)>


> <EC50 (nM)>
>10000

> <kon (M-1-s-1)>


> <koff (s-1)>


> <pH>


> <Temp C>


> <Curation/DataSource>
US Patent

> <Article DOI>


> <BindingDB Entry DOI>
10.7270/Q2NG4TV0

> <PMID>


> <PubChem AID>
aid1806421

> <Patent Number>
US11291655

> <Authors>
Castro, AC; McComas, CC; Vacca, J

> <Date of publication>
4/5/2022

> <Date in BindingDB>
7/21/2022

> <Institution>
Cyteir Therapeutics, Inc.

> <Link to Ligand in BindingDB>
http://www.bindingdb.org/bind/chemsearch/marvin/MolStructure.jsp?monomerid=546379

> <Link to Ligand-Target Pair in BindingDB>
http://www.bindingdb.org/jsp/dbsearch/PrimarySearch_ki.jsp?energyterm=kJ/mole&tag=pol&polymerid=4676&target=DNA+repair+protein+RAD51+homolog+1&column=ki&startPg=0&Increment=50&submit=Search

> <Link to Ligand-Target Pair in BindingDB>
http://www.bindingdb.org/jsp/dbsearch/PrimarySearch_ki.jsp?energyterm=kJ/mole&tag=r21&monomerid=546379&enzyme=DNA+repair+protein+RAD51+homolog+1&column=ki&startPg=0&Increment=50&submit=Search

> <Ligand HET ID in PDB>


> <PDB ID(s) for Ligand-Target Complex>


> <PubChem CID of Ligand>
137412054

> <PubChem SID of Ligand>
469681075

> <ChEBI ID of Ligand>


> <ChEMBL ID of Ligand>


> <DrugBank ID of Ligand>


> <IUPHAR_GRAC ID of Ligand>


> <KEGG ID of Ligand>


> <ZINC ID of Ligand>


> <Number of Protein Chains in Target (bigger than 1 implies a multichain complex)>
1

> <BindingDB Target Chain Sequence>
MAMQMQLEANADTSVEEESFGPQPISRLEQCGINANDVKKLEEAGFHTVEAVAYAPKKELINIKGISEAKADKILAEAAKLVPMGFTTATEFHQRRSEIIQITTGSKELDKLLQGGIETGSITEMFGEFRTGKTQICHTLAVTCQLPIDRGGGEGKAMYIDTEGTFRPERLLAVAERYGLSGSDVLDNVAYARAFNTDHQTQLLYQASAMMVESRYALLIVDSATALYRTDYSGRGELSARQMHLARFLRMLLRLADEFGVAVVITNQVVAQVDGAAMFAADPKKPIGGNIIAHASTTRLYLRKGRGETRICKIYDSPCLPEAEAMFAINADGVGDAKD

> <PDB ID(s) of Target Chain>
1N0W,5JZC,5NP7,5NWL,8BQ2,8BR2,8BSC

> <UniProt (SwissProt) Recommended Name of Target Chain>
DNA repair protein RAD51 homolog 1

> <UniProt (SwissProt) Entry Name of Target Chain>
RAD51_HUMAN

> <UniProt (SwissProt) Primary ID of Target Chain>
Q06609

> <UniProt (SwissProt) Secondary ID(s) of Target Chain>
B0FXP0 B2R8T6 Q6FHX9 Q6ZNA8 Q9BV60

> <UniProt (SwissProt) Alternative ID(s) of Target Chain>


> <UniProt (TrEMBL) Submitted Name of Target Chain>


> <UniProt (TrEMBL) Entry Name of Target Chain>


> <UniProt (TrEMBL) Primary ID of Target Chain>


> <UniProt (TrEMBL) Secondary ID(s) of Target Chain>


> <UniProt (TrEMBL) Alternative ID(s) of Target Chain>


$$$$
00239001.cdx
  Mrv0541 07212217012D          

 37 40  0  0  0  0            999 V2000
   -1.3789    1.9115    0.0000 C   0  0  0  0  0  0  0  0  0  0  0  0
   -1.3789    1.0865    0.0000 C   0  0  0  0  0  0  0  0  0  0  0  0
   -0.5942    0.8316    0.0000 S   0  0  0  0  0  0  0  0  0  0  0  0
   -0.1093    1.4990    0.0000 C   0  0  0  0  0  0  0  0  0  0  0  0
   -0.5942    2.1665    0.0000 N   0  0  0  0  0  0  0  0  0  0  0  0
   -2.0933    0.6740    0.0000 C   0  0  0  0  0  0  0  0  0  0  0  0
   -2.8078    1.0865    0.0000 C   0  0  0  0  0  0  0  0  0  0  0  0
   -3.5223    0.6740    0.0000 C   0  0  0  0  0  0  0  0  0  0  0  0
   -3.5223   -0.1510    0.0000 C   0  0  0  0  0  0  0  0  0  0  0  0
   -2.8078   -0.5635    0.0000 C   0  0  0  0  0  0  0  0  0  0  0  0
   -2.0933   -0.1510    0.0000 C   0  0  0  0  0  0  0  0  0  0  0  0
   -4.2367   -0.5635    0.0000 N   0  0  0  0  0  0  0  0  0  0  0  0
   -4.9512   -0.1510    0.0000 C   0  0  0  0  0  0  0  0  0  0  0  0
   -5.6657   -0.5635    0.0000 C   0  0  0  0  0  0  0  0  0  0  0  0
   -4.9512    0.6740    0.0000 O   0  0  0  0  0  0  0  0  0  0  0  0
    0.7157    1.4990    0.0000 C   0  0  0  0  0  0  0  0  0  0  0  0
    1.1282    0.7845    0.0000 C   0  0  0  0  0  0  0  0  0  0  0  0
    1.9532    0.7845    0.0000 C   0  0  0  0  0  0  0  0  0  0  0  0
    2.3657    1.4990    0.0000 C   0  0  0  0  0  0  0  0  0  0  0  0
    1.9532    2.2135    0.0000 C   0  0  0  0  0  0  0  0  0  0  0  0
    1.1282    2.2135    0.0000 C   0  0  0  0  0  0  0  0  0  0  0  0
    3.1907    1.4990    0.0000 N   0  0  0  0  0  0  0  0  0  0  0  0
    3.6032    0.7845    0.0000 C   0  0  0  0  0  0  0  0  0  0  0  0
    4.4282    0.7845    0.0000 N   0  0  0  0  0  0  0  0  0  0  0  0
    3.1907    0.0701    0.0000 S   0  0  0  0  0  0  0  0  0  0  0  0
    4.8407    1.4990    0.0000 C   0  0  0  0  0  0  0  0  0  0  0  0
    5.6657    1.4990    0.0000 C   0  0  0  0  0  0  0  0  0  0  0  0
    4.4282    2.2135    0.0000 C   0  0  0  0  0  0  0  0  0  0  0  0
   -1.3789   -0.5635    0.0000 S   0  0  0  0  0  0  0  0  0  0  0  0
   -0.6644   -0.9760    0.0000 N   0  0  0  0  0  0  0  0  0  0  0  0
   -0.9664    0.1510    0.0000 O   0  0  0  0  0  0  0  0  0  0  0  0
   -1.7914   -1.2780    0.0000 O   0  0  0  0  0  0  0  0  0  0  0  0
   -0.6644   -1.8010    0.0000 C   0  0  0  0  0  0  0  0  0  0  0  0
    0.0501   -0.5635    0.0000 C   0  0  0  0  0  0  0  0  0  0  0  0
    0.0501   -2.2135    0.0000 C   0  0  0  0  0  0  0  0  0  0  0  0
    0.7646   -0.9760    0.0000 C   0  0  0  0  0  0  0  0  0  0  0  0
    0.7646   -1.8010    0.0000 C   0  0  0  0  0  0  0  0  0  0  0  0
  1  2  4  0  0  0  0
  2  3  4  0  0  0  0
  3  4  4  0  0  0  0
  4  5  4  0  0  0  0
  5  1  4  0  0  0  0
  2  6  1  0  0  0  0
  6  7  4  0  0  0  0
  7  8  4  0  0  0  0
  8  9  4  0  0  0  0
  9 10  4  0  0  0  0
 10 11  4  0  0  0  0
 11  6  4  0  0  0  0
  9 12  1  0  0  0  0
 12 13  1  0  0  0  0
 13 14  1  0  0  0  0
 13 15  2  0  0  0  0
  4 16  1  0  0  0  0
 16 17  4  0  0  0  0
 17 18  4  0  0  0  0
 18 19  4  0  0  0  0
 19 20  4  0  0  0  0
 20 21  4  0  0  0  0
 21 16  4  0  0  0  0
 19 22  1  0  0  0  0
 22 23  1  0  0  0  0
 23 24  1  0  0  0  0
 23 25  2  0  0  0  0
 24 26  1  0  0  0  0
 26 27  1  0  0  0  0
 26 28  1  0  0  0  0
 11 29  1  0  0  0  0
 29 30  1  0  0  0  0
 29 31  2  0  0  0  0
 29 32  2  0  0  0  0
 30 33  1  0  0  0  0
 30 34  1  0  0  0  0
 33 35  1  0  0  0  0
 34 36  1  0  0  0  0
 36 37  1  0  0  0  0
 37 35  1  0  0  0  0
M  END
> <From>
www.bindingDB.org

> <BindingDB Reactant_set_id>
1155229

> <Ligand InChI>
InChI=1S/C26H31N5O3S3/c1-17(2)28-26(35)30-20-9-7-19(8-10-20)25-27-16-23(36-25)22-12-11-21(29-18(3)32)15-24(22)37(33,34)31-13-5-4-6-14-31/h7-12,15-17H,4-6,13-14H2,1-3H3,(H,29,32)(H2,28,30,35)

> <Ligand InChI Key>
MBMYJBSTRPAFCQ-UHFFFAOYSA-N

> <BindingDB MonomerID>
546380

> <BindingDB Ligand Name>
US11291655, No D14

> <Target Name>
DNA repair protein RAD51 homolog 1

> <Target Source Organism According to Curator or DataSource>
Homo sapiens

> <Ki (nM)>


> <IC50 (nM)>


> <Kd (nM)>


> <EC50 (nM)>
>10000

> <kon (M-1-s-1)>


> <koff (s-1)>


> <pH>


> <Temp C>


> <Curation/DataSource>
US Patent

> <Article DOI>


> <BindingDB Entry DOI>
10.7270/Q2NG4TV0

> <PMID>


> <PubChem AID>
aid1806421

> <Patent Number>
US11291655

> <Authors>
Castro, AC; McComas, CC; Vacca, J

> <Date of publication>
4/5/2022

> <Date in BindingDB>
7/21/2022

> <Institution>
Cyteir Therapeutics, Inc.

> <Link to Ligand in BindingDB>
http://www.bindingdb.org/bind/chemsearch/marvin/MolStructure.jsp?monomerid=546380

> <Link to Ligand-Target Pair in BindingDB>
http://www.bindingdb.org/jsp/dbsearch/PrimarySearch_ki.jsp?energyterm=kJ/mole&tag=pol&polymerid=4676&target=DNA+repair+protein+RAD51+homolog+1&column=ki&startPg=0&Increment=50&submit=Search

> <Link to Ligand-Target Pair in BindingDB>
http://www.bindingdb.org/jsp/dbsearch/PrimarySearch_ki.jsp?energyterm=kJ/mole&tag=r21&monomerid=546380&enzyme=DNA+repair+protein+RAD51+homolog+1&column=ki&startPg=0&Increment=50&submit=Search

> <Ligand HET ID in PDB>


> <PDB ID(s) for Ligand-Target Complex>


> <PubChem CID of Ligand>
137412055

> <PubChem SID of Ligand>
469681076

> <ChEBI ID of Ligand>


> <ChEMBL ID of Ligand>


> <DrugBank ID of Ligand>


> <IUPHAR_GRAC ID of Ligand>


> <KEGG ID of Ligand>


> <ZINC ID of Ligand>


> <Number of Protein Chains in Target (bigger than 1 implies a multichain complex)>
1

> <BindingDB Target Chain Sequence>
MAMQMQLEANADTSVEEESFGPQPISRLEQCGINANDVKKLEEAGFHTVEAVAYAPKKELINIKGISEAKADKILAEAAKLVPMGFTTATEFHQRRSEIIQITTGSKELDKLLQGGIETGSITEMFGEFRTGKTQICHTLAVTCQLPIDRGGGEGKAMYIDTEGTFRPERLLAVAERYGLSGSDVLDNVAYARAFNTDHQTQLLYQASAMMVESRYALLIVDSATALYRTDYSGRGELSARQMHLARFLRMLLRLADEFGVAVVITNQVVAQVDGAAMFAADPKKPIGGNIIAHASTTRLYLRKGRGETRICKIYDSPCLPEAEAMFAINADGVGDAKD

> <PDB ID(s) of Target Chain>
1N0W,5JZC,5NP7,5NWL,8BQ2,8BR2,8BSC

> <UniProt (SwissProt) Recommended Name of Target Chain>
DNA repair protein RAD51 homolog 1

> <UniProt (SwissProt) Entry Name of Target Chain>
RAD51_HUMAN

> <UniProt (SwissProt) Primary ID of Target Chain>
Q06609

> <UniProt (SwissProt) Secondary ID(s) of Target Chain>
B0FXP0 B2R8T6 Q6FHX9 Q6ZNA8 Q9BV60

> <UniProt (SwissProt) Alternative ID(s) of Target Chain>


> <UniProt (TrEMBL) Submitted Name of Target Chain>


> <UniProt (TrEMBL) Entry Name of Target Chain>


> <UniProt (TrEMBL) Primary ID of Target Chain>


> <UniProt (TrEMBL) Secondary ID(s) of Target Chain>


> <UniProt (TrEMBL) Alternative ID(s) of Target Chain>


$$$$
00240001.cdx
  Mrv0541 07212217012D          

 39 41  0  0  0  0            999 V2000
   -1.3789    2.5303    0.0000 C   0  0  0  0  0  0  0  0  0  0  0  0
   -1.3789    1.7053    0.0000 C   0  0  0  0  0  0  0  0  0  0  0  0
   -0.5942    1.4503    0.0000 S   0  0  0  0  0  0  0  0  0  0  0  0
   -0.1093    2.1178    0.0000 C   0  0  0  0  0  0  0  0  0  0  0  0
   -0.5942    2.7852    0.0000 N   0  0  0  0  0  0  0  0  0  0  0  0
   -2.0933    1.2928    0.0000 C   0  0  0  0  0  0  0  0  0  0  0  0
   -2.8078    1.7053    0.0000 C   0  0  0  0  0  0  0  0  0  0  0  0
   -3.5223    1.2928    0.0000 C   0  0  0  0  0  0  0  0  0  0  0  0
   -3.5223    0.4678    0.0000 C   0  0  0  0  0  0  0  0  0  0  0  0
   -2.8078    0.0553    0.0000 C   0  0  0  0  0  0  0  0  0  0  0  0
   -2.0933    0.4678    0.0000 C   0  0  0  0  0  0  0  0  0  0  0  0
   -4.2367    0.0553    0.0000 N   0  0  0  0  0  0  0  0  0  0  0  0
   -4.9512    0.4678    0.0000 C   0  0  0  0  0  0  0  0  0  0  0  0
   -5.6657    0.0553    0.0000 C   0  0  0  0  0  0  0  0  0  0  0  0
   -4.9512    1.2928    0.0000 O   0  0  0  0  0  0  0  0  0  0  0  0
    0.7157    2.1178    0.0000 C   0  0  0  0  0  0  0  0  0  0  0  0
    1.1282    1.4033    0.0000 C   0  0  0  0  0  0  0  0  0  0  0  0
    1.9532    1.4033    0.0000 C   0  0  0  0  0  0  0  0  0  0  0  0
    2.3657    2.1178    0.0000 C   0  0  0  0  0  0  0  0  0  0  0  0
    1.9532    2.8322    0.0000 C   0  0  0  0  0  0  0  0  0  0  0  0
    1.1282    2.8322    0.0000 C   0  0  0  0  0  0  0  0  0  0  0  0
    3.1907    2.1178    0.0000 N   0  0  0  0  0  0  0  0  0  0  0  0
    3.6032    1.4033    0.0000 C   0  0  0  0  0  0  0  0  0  0  0  0
    4.4282    1.4033    0.0000 N   0  0  0  0  0  0  0  0  0  0  0  0
    3.1907    0.6888    0.0000 S   0  0  0  0  0  0  0  0  0  0  0  0
    4.8407    2.1178    0.0000 C   0  0  0  0  0  0  0  0  0  0  0  0
    5.6657    2.1178    0.0000 C   0  0  0  0  0  0  0  0  0  0  0  0
    4.4282    2.8322    0.0000 C   0  0  0  0  0  0  0  0  0  0  0  0
   -1.3789    0.0553    0.0000 S   0  0  0  0  0  0  0  0  0  0  0  0
   -0.6644   -0.3572    0.0000 N   0  0  0  0  0  0  0  0  0  0  0  0
   -0.9664    0.7697    0.0000 O   0  0  0  0  0  0  0  0  0  0  0  0
   -1.7914   -0.6592    0.0000 O   0  0  0  0  0  0  0  0  0  0  0  0
   -0.6644   -1.1822    0.0000 C   0  0  1  0  0  0  0  0  0  0  0  0
    0.0501   -1.5947    0.0000 C   0  0  0  0  0  0  0  0  0  0  0  0
   -1.3789   -1.5947    0.0000 C   0  0  0  0  0  0  0  0  0  0  0  0
    0.7646   -1.1822    0.0000 O   0  0  0  0  0  0  0  0  0  0  0  0
   -2.0933   -1.1822    0.0000 O   0  0  0  0  0  0  0  0  0  0  0  0
   -1.3789   -2.4197    0.0000 O   0  0  0  0  0  0  0  0  0  0  0  0
   -2.0933   -2.8322    0.0000 C   0  0  0  0  0  0  0  0  0  0  0  0
  1  2  4  0  0  0  0
  2  3  4  0  0  0  0
  3  4  4  0  0  0  0
  4  5  4  0  0  0  0
  5  1  4  0  0  0  0
  2  6  1  0  0  0  0
  6  7  4  0  0  0  0
  7  8  4  0  0  0  0
  8  9  4  0  0  0  0
  9 10  4  0  0  0  0
 10 11  4  0  0  0  0
 11  6  4  0  0  0  0
  9 12  1  0  0  0  0
 12 13  1  0  0  0  0
 13 14  1  0  0  0  0
 13 15  2  0  0  0  0
  4 16  1  0  0  0  0
 16 17  4  0  0  0  0
 17 18  4  0  0  0  0
 18 19  4  0  0  0  0
 19 20  4  0  0  0  0
 20 21  4  0  0  0  0
 21 16  4  0  0  0  0
 19 22  1  0  0  0  0
 22 23  1  0  0  0  0
 23 24  1  0  0  0  0
 23 25  2  0  0  0  0
 24 26  1  0  0  0  0
 26 27  1  0  0  0  0
 26 28  1  0  0  0  0
 11 29  1  0  0  0  0
 29 30  1  0  0  0  0
 29 31  2  0  0  0  0
 29 32  2  0  0  0  0
 33 30  1  1  0  0  0
 33 34  1  0  0  0  0
 33 35  1  0  0  0  0
 34 36  1  0  0  0  0
 35 37  2  0  0  0  0
 35 38  1  0  0  0  0
 38 39  1  0  0  0  0
M  END
> <From>
www.bindingDB.org

> <BindingDB Reactant_set_id>
1155230

> <Ligand InChI>
InChI=1S/C25H29N5O6S3/c1-14(2)27-25(37)29-17-7-5-16(6-8-17)23-26-12-21(38-23)19-10-9-18(28-15(3)32)11-22(19)39(34,35)30-20(13-31)24(33)36-4/h5-12,14,20,30-31H,13H2,1-4H3,(H,28,32)(H2,27,29,37)/t20-/m0/s1

> <Ligand InChI Key>
FMTDFCUPEREMAQ-FQEVSTJZSA-N

> <BindingDB MonomerID>
546381

> <BindingDB Ligand Name>
US11291655, No D15

> <Target Name>
DNA repair protein RAD51 homolog 1

> <Target Source Organism According to Curator or DataSource>
Homo sapiens

> <Ki (nM)>


> <IC50 (nM)>


> <Kd (nM)>


> <EC50 (nM)>
>10000

> <kon (M-1-s-1)>


> <koff (s-1)>


> <pH>


> <Temp C>


> <Curation/DataSource>
US Patent

> <Article DOI>


> <BindingDB Entry DOI>
10.7270/Q2NG4TV0

> <PMID>


> <PubChem AID>
aid1806421

> <Patent Number>
US11291655

> <Authors>
Castro, AC; McComas, CC; Vacca, J

> <Date of publication>
4/5/2022

> <Date in BindingDB>
7/21/2022

> <Institution>
Cyteir Therapeutics, Inc.

> <Link to Ligand in BindingDB>
http://www.bindingdb.org/bind/chemsearch/marvin/MolStructure.jsp?monomerid=546381

> <Link to Ligand-Target Pair in BindingDB>
http://www.bindingdb.org/jsp/dbsearch/PrimarySearch_ki.jsp?energyterm=kJ/mole&tag=pol&polymerid=4676&target=DNA+repair+protein+RAD51+homolog+1&column=ki&startPg=0&Increment=50&submit=Search

> <Link to Ligand-Target Pair in BindingDB>
http://www.bindingdb.org/jsp/dbsearch/PrimarySearch_ki.jsp?energyterm=kJ/mole&tag=r21&monomerid=546381&enzyme=DNA+repair+protein+RAD51+homolog+1&column=ki&startPg=0&Increment=50&submit=Search

> <Ligand HET ID in PDB>


> <PDB ID(s) for Ligand-Target Complex>


> <PubChem CID of Ligand>
137412031

> <PubChem SID of Ligand>
469681077

> <ChEBI ID of Ligand>


> <ChEMBL ID of Ligand>


> <DrugBank ID of Ligand>


> <IUPHAR_GRAC ID of Ligand>


> <KEGG ID of Ligand>


> <ZINC ID of Ligand>


> <Number of Protein Chains in Target (bigger than 1 implies a multichain complex)>
1

> <BindingDB Target Chain Sequence>
MAMQMQLEANADTSVEEESFGPQPISRLEQCGINANDVKKLEEAGFHTVEAVAYAPKKELINIKGISEAKADKILAEAAKLVPMGFTTATEFHQRRSEIIQITTGSKELDKLLQGGIETGSITEMFGEFRTGKTQICHTLAVTCQLPIDRGGGEGKAMYIDTEGTFRPERLLAVAERYGLSGSDVLDNVAYARAFNTDHQTQLLYQASAMMVESRYALLIVDSATALYRTDYSGRGELSARQMHLARFLRMLLRLADEFGVAVVITNQVVAQVDGAAMFAADPKKPIGGNIIAHASTTRLYLRKGRGETRICKIYDSPCLPEAEAMFAINADGVGDAKD

> <PDB ID(s) of Target Chain>
1N0W,5JZC,5NP7,5NWL,8BQ2,8BR2,8BSC

> <UniProt (SwissProt) Recommended Name of Target Chain>
DNA repair protein RAD51 homolog 1

> <UniProt (SwissProt) Entry Name of Target Chain>
RAD51_HUMAN

> <UniProt (SwissProt) Primary ID of Target Chain>
Q06609

> <UniProt (SwissProt) Secondary ID(s) of Target Chain>
B0FXP0 B2R8T6 Q6FHX9 Q6ZNA8 Q9BV60

> <UniProt (SwissProt) Alternative ID(s) of Target Chain>


> <UniProt (TrEMBL) Submitted Name of Target Chain>


> <UniProt (TrEMBL) Entry Name of Target Chain>


> <UniProt (TrEMBL) Primary ID of Target Chain>


> <UniProt (TrEMBL) Secondary ID(s) of Target Chain>


> <UniProt (TrEMBL) Alternative ID(s) of Target Chain>


$$$$
00241001.cdx
  Mrv0541 07212217012D          

 37 39  0  0  0  0            999 V2000
   -1.3789    2.5303    0.0000 C   0  0  0  0  0  0  0  0  0  0  0  0
   -1.3789    1.7053    0.0000 C   0  0  0  0  0  0  0  0  0  0  0  0
   -0.5942    1.4503    0.0000 S   0  0  0  0  0  0  0  0  0  0  0  0
   -0.1093    2.1178    0.0000 C   0  0  0  0  0  0  0  0  0  0  0  0
   -0.5942    2.7852    0.0000 N   0  0  0  0  0  0  0  0  0  0  0  0
   -2.0933    1.2928    0.0000 C   0  0  0  0  0  0  0  0  0  0  0  0
   -2.8078    1.7053    0.0000 C   0  0  0  0  0  0  0  0  0  0  0  0
   -3.5223    1.2928    0.0000 C   0  0  0  0  0  0  0  0  0  0  0  0
   -3.5223    0.4678    0.0000 C   0  0  0  0  0  0  0  0  0  0  0  0
   -2.8078    0.0553    0.0000 C   0  0  0  0  0  0  0  0  0  0  0  0
   -2.0933    0.4678    0.0000 C   0  0  0  0  0  0  0  0  0  0  0  0
   -4.2367    0.0553    0.0000 N   0  0  0  0  0  0  0  0  0  0  0  0
   -4.9512    0.4678    0.0000 C   0  0  0  0  0  0  0  0  0  0  0  0
   -5.6657    0.0553    0.0000 C   0  0  0  0  0  0  0  0  0  0  0  0
   -4.9512    1.2928    0.0000 O   0  0  0  0  0  0  0  0  0  0  0  0
    0.7157    2.1178    0.0000 C   0  0  0  0  0  0  0  0  0  0  0  0
    1.1282    1.4033    0.0000 C   0  0  0  0  0  0  0  0  0  0  0  0
    1.9532    1.4033    0.0000 C   0  0  0  0  0  0  0  0  0  0  0  0
    2.3657    2.1178    0.0000 C   0  0  0  0  0  0  0  0  0  0  0  0
    1.9532    2.8322    0.0000 C   0  0  0  0  0  0  0  0  0  0  0  0
    1.1282    2.8322    0.0000 C   0  0  0  0  0  0  0  0  0  0  0  0
    3.1907    2.1178    0.0000 N   0  0  0  0  0  0  0  0  0  0  0  0
    3.6032    1.4033    0.0000 C   0  0  0  0  0  0  0  0  0  0  0  0
    4.4282    1.4033    0.0000 N   0  0  0  0  0  0  0  0  0  0  0  0
    3.1907    0.6888    0.0000 S   0  0  0  0  0  0  0  0  0  0  0  0
    4.8407    2.1178    0.0000 C   0  0  0  0  0  0  0  0  0  0  0  0
    5.6657    2.1178    0.0000 C   0  0  0  0  0  0  0  0  0  0  0  0
    4.4282    2.8322    0.0000 C   0  0  0  0  0  0  0  0  0  0  0  0
   -1.3789    0.0553    0.0000 S   0  0  0  0  0  0  0  0  0  0  0  0
   -0.6644   -0.3572    0.0000 N   0  0  0  0  0  0  0  0  0  0  0  0
   -0.9664    0.7697    0.0000 O   0  0  0  0  0  0  0  0  0  0  0  0
   -1.7914   -0.6592    0.0000 O   0  0  0  0  0  0  0  0  0  0  0  0
   -0.6644   -1.1822    0.0000 C   0  0  0  0  0  0  0  0  0  0  0  0
    0.0501   -1.5947    0.0000 C   0  0  0  0  0  0  0  0  0  0  0  0
    0.0501   -2.4197    0.0000 N   0  0  0  0  0  0  0  0  0  0  0  0
    0.7646   -2.8322    0.0000 C   0  0  0  0  0  0  0  0  0  0  0  0
   -0.6644   -2.8322    0.0000 C   0  0  0  0  0  0  0  0  0  0  0  0
  1  2  4  0  0  0  0
  2  3  4  0  0  0  0
  3  4  4  0  0  0  0
  4  5  4  0  0  0  0
  5  1  4  0  0  0  0
  2  6  1  0  0  0  0
  6  7  4  0  0  0  0
  7  8  4  0  0  0  0
  8  9  4  0  0  0  0
  9 10  4  0  0  0  0
 10 11  4  0  0  0  0
 11  6  4  0  0  0  0
  9 12  1  0  0  0  0
 12 13  1  0  0  0  0
 13 14  1  0  0  0  0
 13 15  2  0  0  0  0
  4 16  1  0  0  0  0
 16 17  4  0  0  0  0
 17 18  4  0  0  0  0
 18 19  4  0  0  0  0
 19 20  4  0  0  0  0
 20 21  4  0  0  0  0
 21 16  4  0  0  0  0
 19 22  1  0  0  0  0
 22 23  1  0  0  0  0
 23 24  1  0  0  0  0
 23 25  2  0  0  0  0
 24 26  1  0  0  0  0
 26 27  1  0  0  0  0
 26 28  1  0  0  0  0
 11 29  1  0  0  0  0
 29 30  1  0  0  0  0
 29 31  2  0  0  0  0
 29 32  2  0  0  0  0
 30 33  1  0  0  0  0
 33 34  1  0  0  0  0
 34 35  1  0  0  0  0
 35 36  1  0  0  0  0
 35 37  1  0  0  0  0
M  END
> <From>
www.bindingDB.org

> <BindingDB Reactant_set_id>
1155231

> <Ligand InChI>
InChI=1S/C25H32N6O3S3/c1-16(2)28-25(35)30-19-8-6-18(7-9-19)24-26-15-22(36-24)21-11-10-20(29-17(3)32)14-23(21)37(33,34)27-12-13-31(4)5/h6-11,14-16,27H,12-13H2,1-5H3,(H,29,32)(H2,28,30,35)

> <Ligand InChI Key>
HXCGAIXGOQIBNY-UHFFFAOYSA-N

> <BindingDB MonomerID>
546382

> <BindingDB Ligand Name>
US11291655, No D16

> <Target Name>
DNA repair protein RAD51 homolog 1

> <Target Source Organism According to Curator or DataSource>
Homo sapiens

> <Ki (nM)>


> <IC50 (nM)>


> <Kd (nM)>


> <EC50 (nM)>
>10000

> <kon (M-1-s-1)>


> <koff (s-1)>


> <pH>


> <Temp C>


> <Curation/DataSource>
US Patent

> <Article DOI>


> <BindingDB Entry DOI>
10.7270/Q2NG4TV0

> <PMID>


> <PubChem AID>
aid1806421

> <Patent Number>
US11291655

> <Authors>
Castro, AC; McComas, CC; Vacca, J

> <Date of publication>
4/5/2022

> <Date in BindingDB>
7/21/2022

> <Institution>
Cyteir Therapeutics, Inc.

> <Link to Ligand in BindingDB>
http://www.bindingdb.org/bind/chemsearch/marvin/MolStructure.jsp?monomerid=546382

> <Link to Ligand-Target Pair in BindingDB>
http://www.bindingdb.org/jsp/dbsearch/PrimarySearch_ki.jsp?energyterm=kJ/mole&tag=pol&polymerid=4676&target=DNA+repair+protein+RAD51+homolog+1&column=ki&startPg=0&Increment=50&submit=Search

> <Link to Ligand-Target Pair in BindingDB>
http://www.bindingdb.org/jsp/dbsearch/PrimarySearch_ki.jsp?energyterm=kJ/mole&tag=r21&monomerid=546382&enzyme=DNA+repair+protein+RAD51+homolog+1&column=ki&startPg=0&Increment=50&submit=Search

> <Ligand HET ID in PDB>


> <PDB ID(s) for Ligand-Target Complex>


> <PubChem CID of Ligand>
137412032

> <PubChem SID of Ligand>
469681078

> <ChEBI ID of Ligand>


> <ChEMBL ID of Ligand>


> <DrugBank ID of Ligand>


> <IUPHAR_GRAC ID of Ligand>


> <KEGG ID of Ligand>


> <ZINC ID of Ligand>


> <Number of Protein Chains in Target (bigger than 1 implies a multichain complex)>
1

> <BindingDB Target Chain Sequence>
MAMQMQLEANADTSVEEESFGPQPISRLEQCGINANDVKKLEEAGFHTVEAVAYAPKKELINIKGISEAKADKILAEAAKLVPMGFTTATEFHQRRSEIIQITTGSKELDKLLQGGIETGSITEMFGEFRTGKTQICHTLAVTCQLPIDRGGGEGKAMYIDTEGTFRPERLLAVAERYGLSGSDVLDNVAYARAFNTDHQTQLLYQASAMMVESRYALLIVDSATALYRTDYSGRGELSARQMHLARFLRMLLRLADEFGVAVVITNQVVAQVDGAAMFAADPKKPIGGNIIAHASTTRLYLRKGRGETRICKIYDSPCLPEAEAMFAINADGVGDAKD

> <PDB ID(s) of Target Chain>
1N0W,5JZC,5NP7,5NWL,8BQ2,8BR2,8BSC

> <UniProt (SwissProt) Recommended Name of Target Chain>
DNA repair protein RAD51 homolog 1

> <UniProt (SwissProt) Entry Name of Target Chain>
RAD51_HUMAN

> <UniProt (SwissProt) Primary ID of Target Chain>
Q06609

> <UniProt (SwissProt) Secondary ID(s) of Target Chain>
B0FXP0 B2R8T6 Q6FHX9 Q6ZNA8 Q9BV60

> <UniProt (SwissProt) Alternative ID(s) of Target Chain>


> <UniProt (TrEMBL) Submitted Name of Target Chain>


> <UniProt (TrEMBL) Entry Name of Target Chain>


> <UniProt (TrEMBL) Primary ID of Target Chain>


> <UniProt (TrEMBL) Secondary ID(s) of Target Chain>


> <UniProt (TrEMBL) Alternative ID(s) of Target Chain>


$$$$
00242001.cdx
  Mrv0541 07212217012D          

 35 37  0  0  0  0            999 V2000
   -1.3789    2.3240    0.0000 C   0  0  0  0  0  0  0  0  0  0  0  0
   -1.3789    1.4990    0.0000 C   0  0  0  0  0  0  0  0  0  0  0  0
   -0.5942    1.2441    0.0000 S   0  0  0  0  0  0  0  0  0  0  0  0
   -0.1093    1.9115    0.0000 C   0  0  0  0  0  0  0  0  0  0  0  0
   -0.5942    2.5790    0.0000 N   0  0  0  0  0  0  0  0  0  0  0  0
   -2.0933    1.0865    0.0000 C   0  0  0  0  0  0  0  0  0  0  0  0
   -2.8078    1.4990    0.0000 C   0  0  0  0  0  0  0  0  0  0  0  0
   -3.5223    1.0865    0.0000 C   0  0  0  0  0  0  0  0  0  0  0  0
   -3.5223    0.2615    0.0000 C   0  0  0  0  0  0  0  0  0  0  0  0
   -2.8078   -0.1510    0.0000 C   0  0  0  0  0  0  0  0  0  0  0  0
   -2.0933    0.2615    0.0000 C   0  0  0  0  0  0  0  0  0  0  0  0
   -4.2367   -0.1510    0.0000 N   0  0  0  0  0  0  0  0  0  0  0  0
   -4.9512    0.2615    0.0000 C   0  0  0  0  0  0  0  0  0  0  0  0
   -5.6657   -0.1510    0.0000 C   0  0  0  0  0  0  0  0  0  0  0  0
   -4.9512    1.0865    0.0000 O   0  0  0  0  0  0  0  0  0  0  0  0
    0.7157    1.9115    0.0000 C   0  0  0  0  0  0  0  0  0  0  0  0
    1.1282    1.1970    0.0000 C   0  0  0  0  0  0  0  0  0  0  0  0
    1.9532    1.1970    0.0000 C   0  0  0  0  0  0  0  0  0  0  0  0
    2.3657    1.9115    0.0000 C   0  0  0  0  0  0  0  0  0  0  0  0
    1.9532    2.6260    0.0000 C   0  0  0  0  0  0  0  0  0  0  0  0
    1.1282    2.6260    0.0000 C   0  0  0  0  0  0  0  0  0  0  0  0
    3.1907    1.9115    0.0000 N   0  0  0  0  0  0  0  0  0  0  0  0
    3.6032    1.1970    0.0000 C   0  0  0  0  0  0  0  0  0  0  0  0
    4.4282    1.1970    0.0000 N   0  0  0  0  0  0  0  0  0  0  0  0
    3.1907    0.4826    0.0000 S   0  0  0  0  0  0  0  0  0  0  0  0
    4.8407    1.9115    0.0000 C   0  0  0  0  0  0  0  0  0  0  0  0
    5.6657    1.9115    0.0000 C   0  0  0  0  0  0  0  0  0  0  0  0
    4.4282    2.6260    0.0000 C   0  0  0  0  0  0  0  0  0  0  0  0
   -1.3789   -0.1510    0.0000 S   0  0  0  0  0  0  0  0  0  0  0  0
   -0.6644   -0.5635    0.0000 N   0  0  0  0  0  0  0  0  0  0  0  0
   -0.9664    0.5635    0.0000 O   0  0  0  0  0  0  0  0  0  0  0  0
   -1.7914   -0.8655    0.0000 O   0  0  0  0  0  0  0  0  0  0  0  0
   -0.6644   -1.3885    0.0000 C   0  0  0  0  0  0  0  0  0  0  0  0
    0.0501   -1.8010    0.0000 C   0  0  0  0  0  0  0  0  0  0  0  0
    0.0501   -2.6260    0.0000 N   0  0  0  0  0  0  0  0  0  0  0  0
  1  2  4  0  0  0  0
  2  3  4  0  0  0  0
  3  4  4  0  0  0  0
  4  5  4  0  0  0  0
  5  1  4  0  0  0  0
  2  6  1  0  0  0  0
  6  7  4  0  0  0  0
  7  8  4  0  0  0  0
  8  9  4  0  0  0  0
  9 10  4  0  0  0  0
 10 11  4  0  0  0  0
 11  6  4  0  0  0  0
  9 12  1  0  0  0  0
 12 13  1  0  0  0  0
 13 14  1  0  0  0  0
 13 15  2  0  0  0  0
  4 16  1  0  0  0  0
 16 17  4  0  0  0  0
 17 18  4  0  0  0  0
 18 19  4  0  0  0  0
 19 20  4  0  0  0  0
 20 21  4  0  0  0  0
 21 16  4  0  0  0  0
 19 22  1  0  0  0  0
 22 23  1  0  0  0  0
 23 24  1  0  0  0  0
 23 25  2  0  0  0  0
 24 26  1  0  0  0  0
 26 27  1  0  0  0  0
 26 28  1  0  0  0  0
 11 29  1  0  0  0  0
 29 30  1  0  0  0  0
 29 31  2  0  0  0  0
 29 32  2  0  0  0  0
 30 33  1  0  0  0  0
 33 34  1  0  0  0  0
 34 35  1  0  0  0  0
M  END
> <From>
www.bindingDB.org

> <BindingDB Reactant_set_id>
1155232

> <Ligand InChI>
InChI=1S/C23H28N6O3S3/c1-14(2)27-23(33)29-17-6-4-16(5-7-17)22-25-13-20(34-22)19-9-8-18(28-15(3)30)12-21(19)35(31,32)26-11-10-24/h4-9,12-14,26H,10-11,24H2,1-3H3,(H,28,30)(H2,27,29,33)

> <Ligand InChI Key>
NXGAVIXRYOAIPQ-UHFFFAOYSA-N

> <BindingDB MonomerID>
546383

> <BindingDB Ligand Name>
US11291655, No D17

> <Target Name>
DNA repair protein RAD51 homolog 1

> <Target Source Organism According to Curator or DataSource>
Homo sapiens

> <Ki (nM)>


> <IC50 (nM)>


> <Kd (nM)>


> <EC50 (nM)>
>10000

> <kon (M-1-s-1)>


> <koff (s-1)>


> <pH>


> <Temp C>


> <Curation/DataSource>
US Patent

> <Article DOI>


> <BindingDB Entry DOI>
10.7270/Q2NG4TV0

> <PMID>


> <PubChem AID>
aid1806421

> <Patent Number>
US11291655

> <Authors>
Castro, AC; McComas, CC; Vacca, J

> <Date of publication>
4/5/2022

> <Date in BindingDB>
7/21/2022

> <Institution>
Cyteir Therapeutics, Inc.

> <Link to Ligand in BindingDB>
http://www.bindingdb.org/bind/chemsearch/marvin/MolStructure.jsp?monomerid=546383

> <Link to Ligand-Target Pair in BindingDB>
http://www.bindingdb.org/jsp/dbsearch/PrimarySearch_ki.jsp?energyterm=kJ/mole&tag=pol&polymerid=4676&target=DNA+repair+protein+RAD51+homolog+1&column=ki&startPg=0&Increment=50&submit=Search

> <Link to Ligand-Target Pair in BindingDB>
http://www.bindingdb.org/jsp/dbsearch/PrimarySearch_ki.jsp?energyterm=kJ/mole&tag=r21&monomerid=546383&enzyme=DNA+repair+protein+RAD51+homolog+1&column=ki&startPg=0&Increment=50&submit=Search

> <Ligand HET ID in PDB>


> <PDB ID(s) for Ligand-Target Complex>


> <PubChem CID of Ligand>
137412035

> <PubChem SID of Ligand>
469681079

> <ChEBI ID of Ligand>


> <ChEMBL ID of Ligand>


> <DrugBank ID of Ligand>


> <IUPHAR_GRAC ID of Ligand>


> <KEGG ID of Ligand>


> <ZINC ID of Ligand>


> <Number of Protein Chains in Target (bigger than 1 implies a multichain complex)>
1

> <BindingDB Target Chain Sequence>
MAMQMQLEANADTSVEEESFGPQPISRLEQCGINANDVKKLEEAGFHTVEAVAYAPKKELINIKGISEAKADKILAEAAKLVPMGFTTATEFHQRRSEIIQITTGSKELDKLLQGGIETGSITEMFGEFRTGKTQICHTLAVTCQLPIDRGGGEGKAMYIDTEGTFRPERLLAVAERYGLSGSDVLDNVAYARAFNTDHQTQLLYQASAMMVESRYALLIVDSATALYRTDYSGRGELSARQMHLARFLRMLLRLADEFGVAVVITNQVVAQVDGAAMFAADPKKPIGGNIIAHASTTRLYLRKGRGETRICKIYDSPCLPEAEAMFAINADGVGDAKD

> <PDB ID(s) of Target Chain>
1N0W,5JZC,5NP7,5NWL,8BQ2,8BR2,8BSC

> <UniProt (SwissProt) Recommended Name of Target Chain>
DNA repair protein RAD51 homolog 1

> <UniProt (SwissProt) Entry Name of Target Chain>
RAD51_HUMAN

> <UniProt (SwissProt) Primary ID of Target Chain>
Q06609

> <UniProt (SwissProt) Secondary ID(s) of Target Chain>
B0FXP0 B2R8T6 Q6FHX9 Q6ZNA8 Q9BV60

> <UniProt (SwissProt) Alternative ID(s) of Target Chain>


> <UniProt (TrEMBL) Submitted Name of Target Chain>


> <UniProt (TrEMBL) Entry Name of Target Chain>


> <UniProt (TrEMBL) Primary ID of Target Chain>


> <UniProt (TrEMBL) Secondary ID(s) of Target Chain>


> <UniProt (TrEMBL) Alternative ID(s) of Target Chain>


$$$$
00243001.cdx
  Mrv0541 07212217012D          

 38 40  0  0  0  0            999 V2000
   -1.3789    2.3240    0.0000 C   0  0  0  0  0  0  0  0  0  0  0  0
   -1.3789    1.4990    0.0000 C   0  0  0  0  0  0  0  0  0  0  0  0
   -0.5942    1.2441    0.0000 S   0  0  0  0  0  0  0  0  0  0  0  0
   -0.1093    1.9115    0.0000 C   0  0  0  0  0  0  0  0  0  0  0  0
   -0.5942    2.5790    0.0000 N   0  0  0  0  0  0  0  0  0  0  0  0
   -2.0933    1.0865    0.0000 C   0  0  0  0  0  0  0  0  0  0  0  0
   -2.8078    1.4990    0.0000 C   0  0  0  0  0  0  0  0  0  0  0  0
   -3.5223    1.0865    0.0000 C   0  0  0  0  0  0  0  0  0  0  0  0
   -3.5223    0.2615    0.0000 C   0  0  0  0  0  0  0  0  0  0  0  0
   -2.8078   -0.1510    0.0000 C   0  0  0  0  0  0  0  0  0  0  0  0
   -2.0933    0.2615    0.0000 C   0  0  0  0  0  0  0  0  0  0  0  0
   -4.2367   -0.1510    0.0000 N   0  0  0  0  0  0  0  0  0  0  0  0
   -4.9512    0.2615    0.0000 C   0  0  0  0  0  0  0  0  0  0  0  0
   -5.6657   -0.1510    0.0000 C   0  0  0  0  0  0  0  0  0  0  0  0
   -4.9512    1.0865    0.0000 O   0  0  0  0  0  0  0  0  0  0  0  0
    0.7157    1.9115    0.0000 C   0  0  0  0  0  0  0  0  0  0  0  0
    1.1282    1.1970    0.0000 C   0  0  0  0  0  0  0  0  0  0  0  0
    1.9532    1.1970    0.0000 C   0  0  0  0  0  0  0  0  0  0  0  0
    2.3657    1.9115    0.0000 C   0  0  0  0  0  0  0  0  0  0  0  0
    1.9532    2.6260    0.0000 C   0  0  0  0  0  0  0  0  0  0  0  0
    1.1282    2.6260    0.0000 C   0  0  0  0  0  0  0  0  0  0  0  0
    3.1907    1.9115    0.0000 N   0  0  0  0  0  0  0  0  0  0  0  0
    3.6032    1.1970    0.0000 C   0  0  0  0  0  0  0  0  0  0  0  0
    4.4282    1.1970    0.0000 N   0  0  0  0  0  0  0  0  0  0  0  0
    3.1907    0.4826    0.0000 S   0  0  0  0  0  0  0  0  0  0  0  0
    4.8407    1.9115    0.0000 C   0  0  0  0  0  0  0  0  0  0  0  0
    5.6657    1.9115    0.0000 C   0  0  0  0  0  0  0  0  0  0  0  0
    4.4282    2.6260    0.0000 C   0  0  0  0  0  0  0  0  0  0  0  0
   -1.3789   -0.1510    0.0000 S   0  0  0  0  0  0  0  0  0  0  0  0
   -0.6644   -0.5635    0.0000 N   0  0  0  0  0  0  0  0  0  0  0  0
   -0.9664    0.5635    0.0000 O   0  0  0  0  0  0  0  0  0  0  0  0
   -1.7914   -0.8655    0.0000 O   0  0  0  0  0  0  0  0  0  0  0  0
   -0.6644   -1.3885    0.0000 C   0  0  1  0  0  0  0  0  0  0  0  0
    0.0501   -1.8010    0.0000 C   0  0  0  0  0  0  0  0  0  0  0  0
   -1.3789   -1.8010    0.0000 C   0  0  0  0  0  0  0  0  0  0  0  0
    0.7646   -1.3885    0.0000 C   0  0  0  0  0  0  0  0  0  0  0  0
    0.0501   -2.6260    0.0000 C   0  0  0  0  0  0  0  0  0  0  0  0
   -1.3789   -2.6260    0.0000 O   0  0  0  0  0  0  0  0  0  0  0  0
  1  2  4  0  0  0  0
  2  3  4  0  0  0  0
  3  4  4  0  0  0  0
  4  5  4  0  0  0  0
  5  1  4  0  0  0  0
  2  6  1  0  0  0  0
  6  7  4  0  0  0  0
  7  8  4  0  0  0  0
  8  9  4  0  0  0  0
  9 10  4  0  0  0  0
 10 11  4  0  0  0  0
 11  6  4  0  0  0  0
  9 12  1  0  0  0  0
 12 13  1  0  0  0  0
 13 14  1  0  0  0  0
 13 15  2  0  0  0  0
  4 16  1  0  0  0  0
 16 17  4  0  0  0  0
 17 18  4  0  0  0  0
 18 19  4  0  0  0  0
 19 20  4  0  0  0  0
 20 21  4  0  0  0  0
 21 16  4  0  0  0  0
 19 22  1  0  0  0  0
 22 23  1  0  0  0  0
 23 24  1  0  0  0  0
 23 25  2  0  0  0  0
 24 26  1  0  0  0  0
 26 27  1  0  0  0  0
 26 28  1  0  0  0  0
 11 29  1  0  0  0  0
 29 30  1  0  0  0  0
 29 31  2  0  0  0  0
 29 32  2  0  0  0  0
 33 30  1  1  0  0  0
 33 34  1  0  0  0  0
 33 35  1  0  0  0  0
 34 36  1  0  0  0  0
 34 37  1  0  0  0  0
 35 38  1  0  0  0  0
M  END
> <From>
www.bindingDB.org

> <BindingDB Reactant_set_id>
1155233

> <Ligand InChI>
InChI=1S/C26H33N5O4S3/c1-15(2)22(14-32)31-38(34,35)24-12-20(29-17(5)33)10-11-21(24)23-13-27-25(37-23)18-6-8-19(9-7-18)30-26(36)28-16(3)4/h6-13,15-16,22,31-32H,14H2,1-5H3,(H,29,33)(H2,28,30,36)/t22-/m1/s1

> <Ligand InChI Key>
CZXXVUKNXHXASF-JOCHJYFZSA-N

> <BindingDB MonomerID>
546384

> <BindingDB Ligand Name>
US11291655, No D18

> <Target Name>
DNA repair protein RAD51 homolog 1

> <Target Source Organism According to Curator or DataSource>
Homo sapiens

> <Ki (nM)>


> <IC50 (nM)>


> <Kd (nM)>


> <EC50 (nM)>
>10000

> <kon (M-1-s-1)>


> <koff (s-1)>


> <pH>


> <Temp C>


> <Curation/DataSource>
US Patent

> <Article DOI>


> <BindingDB Entry DOI>
10.7270/Q2NG4TV0

> <PMID>


> <PubChem AID>
aid1806421

> <Patent Number>
US11291655

> <Authors>
Castro, AC; McComas, CC; Vacca, J

> <Date of publication>
4/5/2022

> <Date in BindingDB>
7/21/2022

> <Institution>
Cyteir Therapeutics, Inc.

> <Link to Ligand in BindingDB>
http://www.bindingdb.org/bind/chemsearch/marvin/MolStructure.jsp?monomerid=546384

> <Link to Ligand-Target Pair in BindingDB>
http://www.bindingdb.org/jsp/dbsearch/PrimarySearch_ki.jsp?energyterm=kJ/mole&tag=pol&polymerid=4676&target=DNA+repair+protein+RAD51+homolog+1&column=ki&startPg=0&Increment=50&submit=Search

> <Link to Ligand-Target Pair in BindingDB>
http://www.bindingdb.org/jsp/dbsearch/PrimarySearch_ki.jsp?energyterm=kJ/mole&tag=r21&monomerid=546384&enzyme=DNA+repair+protein+RAD51+homolog+1&column=ki&startPg=0&Increment=50&submit=Search

> <Ligand HET ID in PDB>


> <PDB ID(s) for Ligand-Target Complex>


> <PubChem CID of Ligand>
137412033

> <PubChem SID of Ligand>
469681080

> <ChEBI ID of Ligand>


> <ChEMBL ID of Ligand>


> <DrugBank ID of Ligand>


> <IUPHAR_GRAC ID of Ligand>


> <KEGG ID of Ligand>


> <ZINC ID of Ligand>


> <Number of Protein Chains in Target (bigger than 1 implies a multichain complex)>
1

> <BindingDB Target Chain Sequence>
MAMQMQLEANADTSVEEESFGPQPISRLEQCGINANDVKKLEEAGFHTVEAVAYAPKKELINIKGISEAKADKILAEAAKLVPMGFTTATEFHQRRSEIIQITTGSKELDKLLQGGIETGSITEMFGEFRTGKTQICHTLAVTCQLPIDRGGGEGKAMYIDTEGTFRPERLLAVAERYGLSGSDVLDNVAYARAFNTDHQTQLLYQASAMMVESRYALLIVDSATALYRTDYSGRGELSARQMHLARFLRMLLRLADEFGVAVVITNQVVAQVDGAAMFAADPKKPIGGNIIAHASTTRLYLRKGRGETRICKIYDSPCLPEAEAMFAINADGVGDAKD

> <PDB ID(s) of Target Chain>
1N0W,5JZC,5NP7,5NWL,8BQ2,8BR2,8BSC

> <UniProt (SwissProt) Recommended Name of Target Chain>
DNA repair protein RAD51 homolog 1

> <UniProt (SwissProt) Entry Name of Target Chain>
RAD51_HUMAN

> <UniProt (SwissProt) Primary ID of Target Chain>
Q06609

> <UniProt (SwissProt) Secondary ID(s) of Target Chain>
B0FXP0 B2R8T6 Q6FHX9 Q6ZNA8 Q9BV60

> <UniProt (SwissProt) Alternative ID(s) of Target Chain>


> <UniProt (TrEMBL) Submitted Name of Target Chain>


> <UniProt (TrEMBL) Entry Name of Target Chain>


> <UniProt (TrEMBL) Primary ID of Target Chain>


> <UniProt (TrEMBL) Secondary ID(s) of Target Chain>


> <UniProt (TrEMBL) Alternative ID(s) of Target Chain>


$$$$
00244001.cdx
  Mrv0541 07212217012D          

 39 42  0  0  0  0            999 V2000
   -1.3789    2.5303    0.0000 C   0  0  0  0  0  0  0  0  0  0  0  0
   -1.3789    1.7053    0.0000 C   0  0  0  0  0  0  0  0  0  0  0  0
   -0.5942    1.4503    0.0000 S   0  0  0  0  0  0  0  0  0  0  0  0
   -0.1093    2.1178    0.0000 C   0  0  0  0  0  0  0  0  0  0  0  0
   -0.5942    2.7852    0.0000 N   0  0  0  0  0  0  0  0  0  0  0  0
   -2.0933    1.2928    0.0000 C   0  0  0  0  0  0  0  0  0  0  0  0
   -2.8078    1.7053    0.0000 C   0  0  0  0  0  0  0  0  0  0  0  0
   -3.5223    1.2928    0.0000 C   0  0  0  0  0  0  0  0  0  0  0  0
   -3.5223    0.4678    0.0000 C   0  0  0  0  0  0  0  0  0  0  0  0
   -2.8078    0.0553    0.0000 C   0  0  0  0  0  0  0  0  0  0  0  0
   -2.0933    0.4678    0.0000 C   0  0  0  0  0  0  0  0  0  0  0  0
   -4.2367    0.0553    0.0000 N   0  0  0  0  0  0  0  0  0  0  0  0
   -4.9512    0.4678    0.0000 C   0  0  0  0  0  0  0  0  0  0  0  0
   -5.6657    0.0553    0.0000 C   0  0  0  0  0  0  0  0  0  0  0  0
   -4.9512    1.2928    0.0000 O   0  0  0  0  0  0  0  0  0  0  0  0
    0.7157    2.1178    0.0000 C   0  0  0  0  0  0  0  0  0  0  0  0
    1.1282    1.4033    0.0000 C   0  0  0  0  0  0  0  0  0  0  0  0
    1.9532    1.4033    0.0000 C   0  0  0  0  0  0  0  0  0  0  0  0
    2.3657    2.1178    0.0000 C   0  0  0  0  0  0  0  0  0  0  0  0
    1.9532    2.8322    0.0000 C   0  0  0  0  0  0  0  0  0  0  0  0
    1.1282    2.8322    0.0000 C   0  0  0  0  0  0  0  0  0  0  0  0
    3.1907    2.1178    0.0000 N   0  0  0  0  0  0  0  0  0  0  0  0
    3.6032    1.4033    0.0000 C   0  0  0  0  0  0  0  0  0  0  0  0
    4.4282    1.4033    0.0000 N   0  0  0  0  0  0  0  0  0  0  0  0
    3.1907    0.6888    0.0000 S   0  0  0  0  0  0  0  0  0  0  0  0
    4.8407    2.1178    0.0000 C   0  0  0  0  0  0  0  0  0  0  0  0
    5.6657    2.1178    0.0000 C   0  0  0  0  0  0  0  0  0  0  0  0
    4.4282    2.8322    0.0000 C   0  0  0  0  0  0  0  0  0  0  0  0
   -1.3789    0.0553    0.0000 S   0  0  0  0  0  0  0  0  0  0  0  0
   -0.6644   -0.3572    0.0000 N   0  0  0  0  0  0  0  0  0  0  0  0
   -0.9664    0.7697    0.0000 O   0  0  0  0  0  0  0  0  0  0  0  0
   -1.7914   -0.6592    0.0000 O   0  0  0  0  0  0  0  0  0  0  0  0
   -0.6644   -1.1822    0.0000 C   0  0  0  0  0  0  0  0  0  0  0  0
    0.0501   -1.5947    0.0000 C   0  0  0  0  0  0  0  0  0  0  0  0
    0.0501   -2.4197    0.0000 C   0  0  0  0  0  0  0  0  0  0  0  0
    0.7646   -2.8322    0.0000 C   0  0  0  0  0  0  0  0  0  0  0  0
    1.4790   -2.4197    0.0000 C   0  0  0  0  0  0  0  0  0  0  0  0
    1.4790   -1.5947    0.0000 C   0  0  0  0  0  0  0  0  0  0  0  0
    0.7646   -1.1822    0.0000 C   0  0  0  0  0  0  0  0  0  0  0  0
  1  2  4  0  0  0  0
  2  3  4  0  0  0  0
  3  4  4  0  0  0  0
  4  5  4  0  0  0  0
  5  1  4  0  0  0  0
  2  6  1  0  0  0  0
  6  7  4  0  0  0  0
  7  8  4  0  0  0  0
  8  9  4  0  0  0  0
  9 10  4  0  0  0  0
 10 11  4  0  0  0  0
 11  6  4  0  0  0  0
  9 12  1  0  0  0  0
 12 13  1  0  0  0  0
 13 14  1  0  0  0  0
 13 15  2  0  0  0  0
  4 16  1  0  0  0  0
 16 17  4  0  0  0  0
 17 18  4  0  0  0  0
 18 19  4  0  0  0  0
 19 20  4  0  0  0  0
 20 21  4  0  0  0  0
 21 16  4  0  0  0  0
 19 22  1  0  0  0  0
 22 23  1  0  0  0  0
 23 24  1  0  0  0  0
 23 25  2  0  0  0  0
 24 26  1  0  0  0  0
 26 27  1  0  0  0  0
 26 28  1  0  0  0  0
 11 29  1  0  0  0  0
 29 30  1  0  0  0  0
 29 31  2  0  0  0  0
 29 32  2  0  0  0  0
 30 33  1  0  0  0  0
 33 34  1  0  0  0  0
 34 35  4  0  0  0  0
 35 36  4  0  0  0  0
 36 37  4  0  0  0  0
 37 38  4  0  0  0  0
 38 39  4  0  0  0  0
 39 34  4  0  0  0  0
M  END
> <From>
www.bindingDB.org

> <BindingDB Reactant_set_id>
1155234

> <Ligand InChI>
InChI=1S/C28H29N5O3S3/c1-18(2)31-28(37)33-22-11-9-21(10-12-22)27-29-17-25(38-27)24-14-13-23(32-19(3)34)15-26(24)39(35,36)30-16-20-7-5-4-6-8-20/h4-15,17-18,30H,16H2,1-3H3,(H,32,34)(H2,31,33,37)

> <Ligand InChI Key>
RSCGTAMDEXNJPA-UHFFFAOYSA-N

> <BindingDB MonomerID>
546385

> <BindingDB Ligand Name>
US11291655, No D19

> <Target Name>
DNA repair protein RAD51 homolog 1

> <Target Source Organism According to Curator or DataSource>
Homo sapiens

> <Ki (nM)>


> <IC50 (nM)>


> <Kd (nM)>


> <EC50 (nM)>
>10000

> <kon (M-1-s-1)>


> <koff (s-1)>


> <pH>


> <Temp C>


> <Curation/DataSource>
US Patent

> <Article DOI>


> <BindingDB Entry DOI>
10.7270/Q2NG4TV0

> <PMID>


> <PubChem AID>
aid1806421

> <Patent Number>
US11291655

> <Authors>
Castro, AC; McComas, CC; Vacca, J

> <Date of publication>
4/5/2022

> <Date in BindingDB>
7/21/2022

> <Institution>
Cyteir Therapeutics, Inc.

> <Link to Ligand in BindingDB>
http://www.bindingdb.org/bind/chemsearch/marvin/MolStructure.jsp?monomerid=546385

> <Link to Ligand-Target Pair in BindingDB>
http://www.bindingdb.org/jsp/dbsearch/PrimarySearch_ki.jsp?energyterm=kJ/mole&tag=pol&polymerid=4676&target=DNA+repair+protein+RAD51+homolog+1&column=ki&startPg=0&Increment=50&submit=Search

> <Link to Ligand-Target Pair in BindingDB>
http://www.bindingdb.org/jsp/dbsearch/PrimarySearch_ki.jsp?energyterm=kJ/mole&tag=r21&monomerid=546385&enzyme=DNA+repair+protein+RAD51+homolog+1&column=ki&startPg=0&Increment=50&submit=Search

> <Ligand HET ID in PDB>


> <PDB ID(s) for Ligand-Target Complex>


> <PubChem CID of Ligand>
137411762

> <PubChem SID of Ligand>
469681081

> <ChEBI ID of Ligand>


> <ChEMBL ID of Ligand>


> <DrugBank ID of Ligand>


> <IUPHAR_GRAC ID of Ligand>


> <KEGG ID of Ligand>


> <ZINC ID of Ligand>


> <Number of Protein Chains in Target (bigger than 1 implies a multichain complex)>
1

> <BindingDB Target Chain Sequence>
MAMQMQLEANADTSVEEESFGPQPISRLEQCGINANDVKKLEEAGFHTVEAVAYAPKKELINIKGISEAKADKILAEAAKLVPMGFTTATEFHQRRSEIIQITTGSKELDKLLQGGIETGSITEMFGEFRTGKTQICHTLAVTCQLPIDRGGGEGKAMYIDTEGTFRPERLLAVAERYGLSGSDVLDNVAYARAFNTDHQTQLLYQASAMMVESRYALLIVDSATALYRTDYSGRGELSARQMHLARFLRMLLRLADEFGVAVVITNQVVAQVDGAAMFAADPKKPIGGNIIAHASTTRLYLRKGRGETRICKIYDSPCLPEAEAMFAINADGVGDAKD

> <PDB ID(s) of Target Chain>
1N0W,5JZC,5NP7,5NWL,8BQ2,8BR2,8BSC

> <UniProt (SwissProt) Recommended Name of Target Chain>
DNA repair protein RAD51 homolog 1

> <UniProt (SwissProt) Entry Name of Target Chain>
RAD51_HUMAN

> <UniProt (SwissProt) Primary ID of Target Chain>
Q06609

> <UniProt (SwissProt) Secondary ID(s) of Target Chain>
B0FXP0 B2R8T6 Q6FHX9 Q6ZNA8 Q9BV60

> <UniProt (SwissProt) Alternative ID(s) of Target Chain>


> <UniProt (TrEMBL) Submitted Name of Target Chain>


> <UniProt (TrEMBL) Entry Name of Target Chain>


> <UniProt (TrEMBL) Primary ID of Target Chain>


> <UniProt (TrEMBL) Secondary ID(s) of Target Chain>


> <UniProt (TrEMBL) Alternative ID(s) of Target Chain>


$$$$
00245001.cdx
  Mrv0541 07212217012D          

 40 42  0  0  0  0            999 V2000
   -1.3789    2.5303    0.0000 C   0  0  0  0  0  0  0  0  0  0  0  0
   -1.3789    1.7053    0.0000 C   0  0  0  0  0  0  0  0  0  0  0  0
   -0.5942    1.4503    0.0000 S   0  0  0  0  0  0  0  0  0  0  0  0
   -0.1093    2.1178    0.0000 C   0  0  0  0  0  0  0  0  0  0  0  0
   -0.5942    2.7852    0.0000 N   0  0  0  0  0  0  0  0  0  0  0  0
   -2.0933    1.2928    0.0000 C   0  0  0  0  0  0  0  0  0  0  0  0
   -2.8078    1.7053    0.0000 C   0  0  0  0  0  0  0  0  0  0  0  0
   -3.5223    1.2928    0.0000 C   0  0  0  0  0  0  0  0  0  0  0  0
   -3.5223    0.4678    0.0000 C   0  0  0  0  0  0  0  0  0  0  0  0
   -2.8078    0.0553    0.0000 C   0  0  0  0  0  0  0  0  0  0  0  0
   -2.0933    0.4678    0.0000 C   0  0  0  0  0  0  0  0  0  0  0  0
   -4.2367    0.0553    0.0000 N   0  0  0  0  0  0  0  0  0  0  0  0
   -4.9512    0.4678    0.0000 C   0  0  0  0  0  0  0  0  0  0  0  0
   -5.6657    0.0553    0.0000 C   0  0  0  0  0  0  0  0  0  0  0  0
   -4.9512    1.2928    0.0000 O   0  0  0  0  0  0  0  0  0  0  0  0
    0.7157    2.1178    0.0000 C   0  0  0  0  0  0  0  0  0  0  0  0
    1.1282    1.4033    0.0000 C   0  0  0  0  0  0  0  0  0  0  0  0
    1.9532    1.4033    0.0000 C   0  0  0  0  0  0  0  0  0  0  0  0
    2.3657    2.1178    0.0000 C   0  0  0  0  0  0  0  0  0  0  0  0
    1.9532    2.8322    0.0000 C   0  0  0  0  0  0  0  0  0  0  0  0
    1.1282    2.8322    0.0000 C   0  0  0  0  0  0  0  0  0  0  0  0
    3.1907    2.1178    0.0000 N   0  0  0  0  0  0  0  0  0  0  0  0
    3.6032    1.4033    0.0000 C   0  0  0  0  0  0  0  0  0  0  0  0
    4.4282    1.4033    0.0000 N   0  0  0  0  0  0  0  0  0  0  0  0
    3.1907    0.6888    0.0000 S   0  0  0  0  0  0  0  0  0  0  0  0
    4.8407    2.1178    0.0000 C   0  0  0  0  0  0  0  0  0  0  0  0
    5.6657    2.1178    0.0000 C   0  0  0  0  0  0  0  0  0  0  0  0
    4.4282    2.8322    0.0000 C   0  0  0  0  0  0  0  0  0  0  0  0
   -1.3789    0.0553    0.0000 S   0  0  0  0  0  0  0  0  0  0  0  0
   -0.6644   -0.3572    0.0000 N   0  0  0  0  0  0  0  0  0  0  0  0
   -0.9664    0.7697    0.0000 O   0  0  0  0  0  0  0  0  0  0  0  0
   -1.7914   -0.6592    0.0000 O   0  0  0  0  0  0  0  0  0  0  0  0
   -0.6644   -1.1822    0.0000 C   0  0  1  0  0  0  0  0  0  0  0  0
    0.0501   -1.5947    0.0000 C   0  0  0  0  0  0  0  0  0  0  0  0
    0.0501   -2.4197    0.0000 C   0  0  0  0  0  0  0  0  0  0  0  0
   -1.3789   -1.5947    0.0000 C   0  0  0  0  0  0  0  0  0  0  0  0
    0.7646   -1.1822    0.0000 C   0  0  0  0  0  0  0  0  0  0  0  0
   -2.0933   -1.1822    0.0000 O   0  0  0  0  0  0  0  0  0  0  0  0
   -1.3789   -2.4197    0.0000 O   0  0  0  0  0  0  0  0  0  0  0  0
   -2.0933   -2.8322    0.0000 C   0  0  0  0  0  0  0  0  0  0  0  0
  1  2  4  0  0  0  0
  2  3  4  0  0  0  0
  3  4  4  0  0  0  0
  4  5  4  0  0  0  0
  5  1  4  0  0  0  0
  2  6  1  0  0  0  0
  6  7  4  0  0  0  0
  7  8  4  0  0  0  0
  8  9  4  0  0  0  0
  9 10  4  0  0  0  0
 10 11  4  0  0  0  0
 11  6  4  0  0  0  0
  9 12  1  0  0  0  0
 12 13  1  0  0  0  0
 13 14  1  0  0  0  0
 13 15  2  0  0  0  0
  4 16  1  0  0  0  0
 16 17  4  0  0  0  0
 17 18  4  0  0  0  0
 18 19  4  0  0  0  0
 19 20  4  0  0  0  0
 20 21  4  0  0  0  0
 21 16  4  0  0  0  0
 19 22  1  0  0  0  0
 22 23  1  0  0  0  0
 23 24  1  0  0  0  0
 23 25  2  0  0  0  0
 24 26  1  0  0  0  0
 26 27  1  0  0  0  0
 26 28  1  0  0  0  0
 11 29  1  0  0  0  0
 29 30  1  0  0  0  0
 29 31  2  0  0  0  0
 29 32  2  0  0  0  0
 33 30  1  1  0  0  0
 33 34  1  0  0  0  0
 34 35  1  0  0  0  0
 33 36  1  0  0  0  0
 34 37  1  0  0  0  0
 36 38  2  0  0  0  0
 36 39  1  0  0  0  0
 39 40  1  0  0  0  0
M  END
> <From>
www.bindingDB.org

> <BindingDB Reactant_set_id>
1155235

> <Ligand InChI>
InChI=1S/C27H33N5O5S3/c1-15(2)24(26(34)37-6)32-40(35,36)23-13-20(30-17(5)33)11-12-21(23)22-14-28-25(39-22)18-7-9-19(10-8-18)31-27(38)29-16(3)4/h7-16,24,32H,1-6H3,(H,30,33)(H2,29,31,38)/t24-/m0/s1

> <Ligand InChI Key>
XBTQSPIAZRJVIG-DEOSSOPVSA-N

> <BindingDB MonomerID>
546386

> <BindingDB Ligand Name>
US11291655, No D2

> <Target Name>
DNA repair protein RAD51 homolog 1

> <Target Source Organism According to Curator or DataSource>
Homo sapiens

> <Ki (nM)>


> <IC50 (nM)>


> <Kd (nM)>


> <EC50 (nM)>
>10000

> <kon (M-1-s-1)>


> <koff (s-1)>


> <pH>


> <Temp C>


> <Curation/DataSource>
US Patent

> <Article DOI>


> <BindingDB Entry DOI>
10.7270/Q2NG4TV0

> <PMID>


> <PubChem AID>
aid1806421

> <Patent Number>
US11291655

> <Authors>
Castro, AC; McComas, CC; Vacca, J

> <Date of publication>
4/5/2022

> <Date in BindingDB>
7/21/2022

> <Institution>
Cyteir Therapeutics, Inc.

> <Link to Ligand in BindingDB>
http://www.bindingdb.org/bind/chemsearch/marvin/MolStructure.jsp?monomerid=546386

> <Link to Ligand-Target Pair in BindingDB>
http://www.bindingdb.org/jsp/dbsearch/PrimarySearch_ki.jsp?energyterm=kJ/mole&tag=pol&polymerid=4676&target=DNA+repair+protein+RAD51+homolog+1&column=ki&startPg=0&Increment=50&submit=Search

> <Link to Ligand-Target Pair in BindingDB>
http://www.bindingdb.org/jsp/dbsearch/PrimarySearch_ki.jsp?energyterm=kJ/mole&tag=r21&monomerid=546386&enzyme=DNA+repair+protein+RAD51+homolog+1&column=ki&startPg=0&Increment=50&submit=Search

> <Ligand HET ID in PDB>


> <PDB ID(s) for Ligand-Target Complex>


> <PubChem CID of Ligand>
137411763

> <PubChem SID of Ligand>
469681082

> <ChEBI ID of Ligand>


> <ChEMBL ID of Ligand>


> <DrugBank ID of Ligand>


> <IUPHAR_GRAC ID of Ligand>


> <KEGG ID of Ligand>


> <ZINC ID of Ligand>


> <Number of Protein Chains in Target (bigger than 1 implies a multichain complex)>
1

> <BindingDB Target Chain Sequence>
MAMQMQLEANADTSVEEESFGPQPISRLEQCGINANDVKKLEEAGFHTVEAVAYAPKKELINIKGISEAKADKILAEAAKLVPMGFTTATEFHQRRSEIIQITTGSKELDKLLQGGIETGSITEMFGEFRTGKTQICHTLAVTCQLPIDRGGGEGKAMYIDTEGTFRPERLLAVAERYGLSGSDVLDNVAYARAFNTDHQTQLLYQASAMMVESRYALLIVDSATALYRTDYSGRGELSARQMHLARFLRMLLRLADEFGVAVVITNQVVAQVDGAAMFAADPKKPIGGNIIAHASTTRLYLRKGRGETRICKIYDSPCLPEAEAMFAINADGVGDAKD

> <PDB ID(s) of Target Chain>
1N0W,5JZC,5NP7,5NWL,8BQ2,8BR2,8BSC

> <UniProt (SwissProt) Recommended Name of Target Chain>
DNA repair protein RAD51 homolog 1

> <UniProt (SwissProt) Entry Name of Target Chain>
RAD51_HUMAN

> <UniProt (SwissProt) Primary ID of Target Chain>
Q06609

> <UniProt (SwissProt) Secondary ID(s) of Target Chain>
B0FXP0 B2R8T6 Q6FHX9 Q6ZNA8 Q9BV60

> <UniProt (SwissProt) Alternative ID(s) of Target Chain>


> <UniProt (TrEMBL) Submitted Name of Target Chain>


> <UniProt (TrEMBL) Entry Name of Target Chain>


> <UniProt (TrEMBL) Primary ID of Target Chain>


> <UniProt (TrEMBL) Secondary ID(s) of Target Chain>


> <UniProt (TrEMBL) Alternative ID(s) of Target Chain>


$$$$
00246001.cdx
  Mrv0541 07212217012D          

 37 39  0  0  0  0            999 V2000
   -1.3789    2.5303    0.0000 C   0  0  0  0  0  0  0  0  0  0  0  0
   -1.3789    1.7053    0.0000 C   0  0  0  0  0  0  0  0  0  0  0  0
   -0.5942    1.4503    0.0000 S   0  0  0  0  0  0  0  0  0  0  0  0
   -0.1093    2.1178    0.0000 C   0  0  0  0  0  0  0  0  0  0  0  0
   -0.5942    2.7852    0.0000 N   0  0  0  0  0  0  0  0  0  0  0  0
   -2.0933    1.2928    0.0000 C   0  0  0  0  0  0  0  0  0  0  0  0
   -2.8078    1.7053    0.0000 C   0  0  0  0  0  0  0  0  0  0  0  0
   -3.5223    1.2928    0.0000 C   0  0  0  0  0  0  0  0  0  0  0  0
   -3.5223    0.4678    0.0000 C   0  0  0  0  0  0  0  0  0  0  0  0
   -2.8078    0.0553    0.0000 C   0  0  0  0  0  0  0  0  0  0  0  0
   -2.0933    0.4678    0.0000 C   0  0  0  0  0  0  0  0  0  0  0  0
   -4.2367    0.0553    0.0000 N   0  0  0  0  0  0  0  0  0  0  0  0
   -4.9512    0.4678    0.0000 C   0  0  0  0  0  0  0  0  0  0  0  0
   -5.6657    0.0553    0.0000 C   0  0  0  0  0  0  0  0  0  0  0  0
   -4.9512    1.2928    0.0000 O   0  0  0  0  0  0  0  0  0  0  0  0
    0.7157    2.1178    0.0000 C   0  0  0  0  0  0  0  0  0  0  0  0
    1.1282    1.4033    0.0000 C   0  0  0  0  0  0  0  0  0  0  0  0
    1.9532    1.4033    0.0000 C   0  0  0  0  0  0  0  0  0  0  0  0
    2.3657    2.1178    0.0000 C   0  0  0  0  0  0  0  0  0  0  0  0
    1.9532    2.8322    0.0000 C   0  0  0  0  0  0  0  0  0  0  0  0
    1.1282    2.8322    0.0000 C   0  0  0  0  0  0  0  0  0  0  0  0
    3.1907    2.1178    0.0000 N   0  0  0  0  0  0  0  0  0  0  0  0
    3.6032    1.4033    0.0000 C   0  0  0  0  0  0  0  0  0  0  0  0
    4.4282    1.4033    0.0000 N   0  0  0  0  0  0  0  0  0  0  0  0
    3.1907    0.6888    0.0000 S   0  0  0  0  0  0  0  0  0  0  0  0
    4.8407    2.1178    0.0000 C   0  0  0  0  0  0  0  0  0  0  0  0
    5.6657    2.1178    0.0000 C   0  0  0  0  0  0  0  0  0  0  0  0
    4.4282    2.8322    0.0000 C   0  0  0  0  0  0  0  0  0  0  0  0
   -1.3789    0.0553    0.0000 S   0  0  0  0  0  0  0  0  0  0  0  0
   -0.6644   -0.3572    0.0000 N   0  0  0  0  0  0  0  0  0  0  0  0
   -0.9664    0.7697    0.0000 O   0  0  0  0  0  0  0  0  0  0  0  0
   -1.7914   -0.6592    0.0000 O   0  0  0  0  0  0  0  0  0  0  0  0
   -0.6644   -1.1822    0.0000 C   0  0  0  0  0  0  0  0  0  0  0  0
   -1.3789   -1.5947    0.0000 C   0  0  0  0  0  0  0  0  0  0  0  0
   -1.3789   -2.4197    0.0000 O   0  0  0  0  0  0  0  0  0  0  0  0
   -2.0933   -1.1822    0.0000 O   0  0  0  0  0  0  0  0  0  0  0  0
   -2.0933   -2.8322    0.0000 C   0  0  0  0  0  0  0  0  0  0  0  0
  1  2  4  0  0  0  0
  2  3  4  0  0  0  0
  3  4  4  0  0  0  0
  4  5  4  0  0  0  0
  5  1  4  0  0  0  0
  2  6  1  0  0  0  0
  6  7  4  0  0  0  0
  7  8  4  0  0  0  0
  8  9  4  0  0  0  0
  9 10  4  0  0  0  0
 10 11  4  0  0  0  0
 11  6  4  0  0  0  0
  9 12  1  0  0  0  0
 12 13  1  0  0  0  0
 13 14  1  0  0  0  0
 13 15  2  0  0  0  0
  4 16  1  0  0  0  0
 16 17  4  0  0  0  0
 17 18  4  0  0  0  0
 18 19  4  0  0  0  0
 19 20  4  0  0  0  0
 20 21  4  0  0  0  0
 21 16  4  0  0  0  0
 19 22  1  0  0  0  0
 22 23  1  0  0  0  0
 23 24  1  0  0  0  0
 23 25  2  0  0  0  0
 24 26  1  0  0  0  0
 26 27  1  0  0  0  0
 26 28  1  0  0  0  0
 11 29  1  0  0  0  0
 29 30  1  0  0  0  0
 29 31  2  0  0  0  0
 29 32  2  0  0  0  0
 30 33  1  0  0  0  0
 33 34  1  0  0  0  0
 34 35  1  0  0  0  0
 34 36  2  0  0  0  0
 35 37  1  0  0  0  0
M  END
> <From>
www.bindingDB.org

> <BindingDB Reactant_set_id>
1155236

> <Ligand InChI>
InChI=1S/C24H27N5O5S3/c1-14(2)27-24(35)29-17-7-5-16(6-8-17)23-25-12-20(36-23)19-10-9-18(28-15(3)30)11-21(19)37(32,33)26-13-22(31)34-4/h5-12,14,26H,13H2,1-4H3,(H,28,30)(H2,27,29,35)

> <Ligand InChI Key>
HXLNMGVJRIGYOG-UHFFFAOYSA-N

> <BindingDB MonomerID>
546387

> <BindingDB Ligand Name>
US11291655, No D20

> <Target Name>
DNA repair protein RAD51 homolog 1

> <Target Source Organism According to Curator or DataSource>
Homo sapiens

> <Ki (nM)>


> <IC50 (nM)>


> <Kd (nM)>


> <EC50 (nM)>
>10000

> <kon (M-1-s-1)>


> <koff (s-1)>


> <pH>


> <Temp C>


> <Curation/DataSource>
US Patent

> <Article DOI>


> <BindingDB Entry DOI>
10.7270/Q2NG4TV0

> <PMID>


> <PubChem AID>
aid1806421

> <Patent Number>
US11291655

> <Authors>
Castro, AC; McComas, CC; Vacca, J

> <Date of publication>
4/5/2022

> <Date in BindingDB>
7/21/2022

> <Institution>
Cyteir Therapeutics, Inc.

> <Link to Ligand in BindingDB>
http://www.bindingdb.org/bind/chemsearch/marvin/MolStructure.jsp?monomerid=546387

> <Link to Ligand-Target Pair in BindingDB>
http://www.bindingdb.org/jsp/dbsearch/PrimarySearch_ki.jsp?energyterm=kJ/mole&tag=pol&polymerid=4676&target=DNA+repair+protein+RAD51+homolog+1&column=ki&startPg=0&Increment=50&submit=Search

> <Link to Ligand-Target Pair in BindingDB>
http://www.bindingdb.org/jsp/dbsearch/PrimarySearch_ki.jsp?energyterm=kJ/mole&tag=r21&monomerid=546387&enzyme=DNA+repair+protein+RAD51+homolog+1&column=ki&startPg=0&Increment=50&submit=Search

> <Ligand HET ID in PDB>


> <PDB ID(s) for Ligand-Target Complex>


> <PubChem CID of Ligand>
137411764

> <PubChem SID of Ligand>
469681083

> <ChEBI ID of Ligand>


> <ChEMBL ID of Ligand>


> <DrugBank ID of Ligand>


> <IUPHAR_GRAC ID of Ligand>


> <KEGG ID of Ligand>


> <ZINC ID of Ligand>


> <Number of Protein Chains in Target (bigger than 1 implies a multichain complex)>
1

> <BindingDB Target Chain Sequence>
MAMQMQLEANADTSVEEESFGPQPISRLEQCGINANDVKKLEEAGFHTVEAVAYAPKKELINIKGISEAKADKILAEAAKLVPMGFTTATEFHQRRSEIIQITTGSKELDKLLQGGIETGSITEMFGEFRTGKTQICHTLAVTCQLPIDRGGGEGKAMYIDTEGTFRPERLLAVAERYGLSGSDVLDNVAYARAFNTDHQTQLLYQASAMMVESRYALLIVDSATALYRTDYSGRGELSARQMHLARFLRMLLRLADEFGVAVVITNQVVAQVDGAAMFAADPKKPIGGNIIAHASTTRLYLRKGRGETRICKIYDSPCLPEAEAMFAINADGVGDAKD

> <PDB ID(s) of Target Chain>
1N0W,5JZC,5NP7,5NWL,8BQ2,8BR2,8BSC

> <UniProt (SwissProt) Recommended Name of Target Chain>
DNA repair protein RAD51 homolog 1

> <UniProt (SwissProt) Entry Name of Target Chain>
RAD51_HUMAN

> <UniProt (SwissProt) Primary ID of Target Chain>
Q06609

> <UniProt (SwissProt) Secondary ID(s) of Target Chain>
B0FXP0 B2R8T6 Q6FHX9 Q6ZNA8 Q9BV60

> <UniProt (SwissProt) Alternative ID(s) of Target Chain>


> <UniProt (TrEMBL) Submitted Name of Target Chain>


> <UniProt (TrEMBL) Entry Name of Target Chain>


> <UniProt (TrEMBL) Primary ID of Target Chain>


> <UniProt (TrEMBL) Secondary ID(s) of Target Chain>


> <UniProt (TrEMBL) Alternative ID(s) of Target Chain>


$$$$
00247001.cdx
  Mrv0541 07212217012D          

 38 40  0  0  0  0            999 V2000
   -1.3789    2.5303    0.0000 C   0  0  0  0  0  0  0  0  0  0  0  0
   -1.3789    1.7053    0.0000 C   0  0  0  0  0  0  0  0  0  0  0  0
   -0.5942    1.4503    0.0000 S   0  0  0  0  0  0  0  0  0  0  0  0
   -0.1093    2.1178    0.0000 C   0  0  0  0  0  0  0  0  0  0  0  0
   -0.5942    2.7852    0.0000 N   0  0  0  0  0  0  0  0  0  0  0  0
   -2.0933    1.2928    0.0000 C   0  0  0  0  0  0  0  0  0  0  0  0
   -2.8078    1.7053    0.0000 C   0  0  0  0  0  0  0  0  0  0  0  0
   -3.5223    1.2928    0.0000 C   0  0  0  0  0  0  0  0  0  0  0  0
   -3.5223    0.4678    0.0000 C   0  0  0  0  0  0  0  0  0  0  0  0
   -2.8078    0.0553    0.0000 C   0  0  0  0  0  0  0  0  0  0  0  0
   -2.0933    0.4678    0.0000 C   0  0  0  0  0  0  0  0  0  0  0  0
   -4.2367    0.0553    0.0000 N   0  0  0  0  0  0  0  0  0  0  0  0
   -4.9512    0.4678    0.0000 C   0  0  0  0  0  0  0  0  0  0  0  0
   -5.6657    0.0553    0.0000 C   0  0  0  0  0  0  0  0  0  0  0  0
   -4.9512    1.2928    0.0000 O   0  0  0  0  0  0  0  0  0  0  0  0
    0.7157    2.1178    0.0000 C   0  0  0  0  0  0  0  0  0  0  0  0
    1.1282    1.4033    0.0000 C   0  0  0  0  0  0  0  0  0  0  0  0
    1.9532    1.4033    0.0000 C   0  0  0  0  0  0  0  0  0  0  0  0
    2.3657    2.1178    0.0000 C   0  0  0  0  0  0  0  0  0  0  0  0
    1.9532    2.8322    0.0000 C   0  0  0  0  0  0  0  0  0  0  0  0
    1.1282    2.8322    0.0000 C   0  0  0  0  0  0  0  0  0  0  0  0
    3.1907    2.1178    0.0000 N   0  0  0  0  0  0  0  0  0  0  0  0
    3.6032    1.4033    0.0000 C   0  0  0  0  0  0  0  0  0  0  0  0
    4.4282    1.4033    0.0000 N   0  0  0  0  0  0  0  0  0  0  0  0
    3.1907    0.6888    0.0000 S   0  0  0  0  0  0  0  0  0  0  0  0
    4.8407    2.1178    0.0000 C   0  0  0  0  0  0  0  0  0  0  0  0
    5.6657    2.1178    0.0000 C   0  0  0  0  0  0  0  0  0  0  0  0
    4.4282    2.8322    0.0000 C   0  0  0  0  0  0  0  0  0  0  0  0
   -1.3789    0.0553    0.0000 S   0  0  0  0  0  0  0  0  0  0  0  0
   -0.6644   -0.3572    0.0000 N   0  0  0  0  0  0  0  0  0  0  0  0
   -0.9664    0.7697    0.0000 O   0  0  0  0  0  0  0  0  0  0  0  0
   -1.7914   -0.6592    0.0000 O   0  0  0  0  0  0  0  0  0  0  0  0
   -0.6644   -1.1822    0.0000 C   0  0  1  0  0  0  0  0  0  0  0  0
    0.0501   -1.5947    0.0000 C   0  0  0  0  0  0  0  0  0  0  0  0
   -1.3789   -1.5947    0.0000 C   0  0  0  0  0  0  0  0  0  0  0  0
   -2.0933   -1.1822    0.0000 O   0  0  0  0  0  0  0  0  0  0  0  0
   -1.3789   -2.4197    0.0000 O   0  0  0  0  0  0  0  0  0  0  0  0
   -2.0933   -2.8322    0.0000 C   0  0  0  0  0  0  0  0  0  0  0  0
  1  2  4  0  0  0  0
  2  3  4  0  0  0  0
  3  4  4  0  0  0  0
  4  5  4  0  0  0  0
  5  1  4  0  0  0  0
  2  6  1  0  0  0  0
  6  7  4  0  0  0  0
  7  8  4  0  0  0  0
  8  9  4  0  0  0  0
  9 10  4  0  0  0  0
 10 11  4  0  0  0  0
 11  6  4  0  0  0  0
  9 12  1  0  0  0  0
 12 13  1  0  0  0  0
 13 14  1  0  0  0  0
 13 15  2  0  0  0  0
  4 16  1  0  0  0  0
 16 17  4  0  0  0  0
 17 18  4  0  0  0  0
 18 19  4  0  0  0  0
 19 20  4  0  0  0  0
 20 21  4  0  0  0  0
 21 16  4  0  0  0  0
 19 22  1  0  0  0  0
 22 23  1  0  0  0  0
 23 24  1  0  0  0  0
 23 25  2  0  0  0  0
 24 26  1  0  0  0  0
 26 27  1  0  0  0  0
 26 28  1  0  0  0  0
 11 29  1  0  0  0  0
 29 30  1  0  0  0  0
 29 31  2  0  0  0  0
 29 32  2  0  0  0  0
 33 30  1  0  0  0  0
 33 34  1  1  0  0  0
 33 35  1  0  0  0  0
 35 36  2  0  0  0  0
 35 37  1  0  0  0  0
 37 38  1  0  0  0  0
M  END
> <From>
www.bindingDB.org

> <BindingDB Reactant_set_id>
1155237

> <Ligand InChI>
InChI=1S/C25H29N5O5S3/c1-14(2)27-25(36)29-18-8-6-17(7-9-18)23-26-13-21(37-23)20-11-10-19(28-16(4)31)12-22(20)38(33,34)30-15(3)24(32)35-5/h6-15,30H,1-5H3,(H,28,31)(H2,27,29,36)/t15-/m0/s1

> <Ligand InChI Key>
YYMFCZMNCBTESD-HNNXBMFYSA-N

> <BindingDB MonomerID>
546388

> <BindingDB Ligand Name>
US11291655, No D21

> <Target Name>
DNA repair protein RAD51 homolog 1

> <Target Source Organism According to Curator or DataSource>
Homo sapiens

> <Ki (nM)>


> <IC50 (nM)>


> <Kd (nM)>


> <EC50 (nM)>
>10000

> <kon (M-1-s-1)>


> <koff (s-1)>


> <pH>


> <Temp C>


> <Curation/DataSource>
US Patent

> <Article DOI>


> <BindingDB Entry DOI>
10.7270/Q2NG4TV0

> <PMID>


> <PubChem AID>
aid1806421

> <Patent Number>
US11291655

> <Authors>
Castro, AC; McComas, CC; Vacca, J

> <Date of publication>
4/5/2022

> <Date in BindingDB>
7/21/2022

> <Institution>
Cyteir Therapeutics, Inc.

> <Link to Ligand in BindingDB>
http://www.bindingdb.org/bind/chemsearch/marvin/MolStructure.jsp?monomerid=546388

> <Link to Ligand-Target Pair in BindingDB>
http://www.bindingdb.org/jsp/dbsearch/PrimarySearch_ki.jsp?energyterm=kJ/mole&tag=pol&polymerid=4676&target=DNA+repair+protein+RAD51+homolog+1&column=ki&startPg=0&Increment=50&submit=Search

> <Link to Ligand-Target Pair in BindingDB>
http://www.bindingdb.org/jsp/dbsearch/PrimarySearch_ki.jsp?energyterm=kJ/mole&tag=r21&monomerid=546388&enzyme=DNA+repair+protein+RAD51+homolog+1&column=ki&startPg=0&Increment=50&submit=Search

> <Ligand HET ID in PDB>


> <PDB ID(s) for Ligand-Target Complex>


> <PubChem CID of Ligand>
137411765

> <PubChem SID of Ligand>
469681084

> <ChEBI ID of Ligand>


> <ChEMBL ID of Ligand>


> <DrugBank ID of Ligand>


> <IUPHAR_GRAC ID of Ligand>


> <KEGG ID of Ligand>


> <ZINC ID of Ligand>


> <Number of Protein Chains in Target (bigger than 1 implies a multichain complex)>
1

> <BindingDB Target Chain Sequence>
MAMQMQLEANADTSVEEESFGPQPISRLEQCGINANDVKKLEEAGFHTVEAVAYAPKKELINIKGISEAKADKILAEAAKLVPMGFTTATEFHQRRSEIIQITTGSKELDKLLQGGIETGSITEMFGEFRTGKTQICHTLAVTCQLPIDRGGGEGKAMYIDTEGTFRPERLLAVAERYGLSGSDVLDNVAYARAFNTDHQTQLLYQASAMMVESRYALLIVDSATALYRTDYSGRGELSARQMHLARFLRMLLRLADEFGVAVVITNQVVAQVDGAAMFAADPKKPIGGNIIAHASTTRLYLRKGRGETRICKIYDSPCLPEAEAMFAINADGVGDAKD

> <PDB ID(s) of Target Chain>
1N0W,5JZC,5NP7,5NWL,8BQ2,8BR2,8BSC

> <UniProt (SwissProt) Recommended Name of Target Chain>
DNA repair protein RAD51 homolog 1

> <UniProt (SwissProt) Entry Name of Target Chain>
RAD51_HUMAN

> <UniProt (SwissProt) Primary ID of Target Chain>
Q06609

> <UniProt (SwissProt) Secondary ID(s) of Target Chain>
B0FXP0 B2R8T6 Q6FHX9 Q6ZNA8 Q9BV60

> <UniProt (SwissProt) Alternative ID(s) of Target Chain>


> <UniProt (TrEMBL) Submitted Name of Target Chain>


> <UniProt (TrEMBL) Entry Name of Target Chain>


> <UniProt (TrEMBL) Primary ID of Target Chain>


> <UniProt (TrEMBL) Secondary ID(s) of Target Chain>


> <UniProt (TrEMBL) Alternative ID(s) of Target Chain>


$$$$
00248001.cdx
  Mrv0541 07212217012D          

 38 42  0  0  0  0            999 V2000
   -1.3789    1.8164    0.0000 C   0  0  0  0  0  0  0  0  0  0  0  0
   -1.3789    0.9914    0.0000 C   0  0  0  0  0  0  0  0  0  0  0  0
   -0.5942    0.7365    0.0000 S   0  0  0  0  0  0  0  0  0  0  0  0
   -0.1093    1.4039    0.0000 C   0  0  0  0  0  0  0  0  0  0  0  0
   -0.5942    2.0714    0.0000 N   0  0  0  0  0  0  0  0  0  0  0  0
   -2.0933    0.5789    0.0000 C   0  0  0  0  0  0  0  0  0  0  0  0
   -2.8078    0.9914    0.0000 C   0  0  0  0  0  0  0  0  0  0  0  0
   -3.5223    0.5789    0.0000 C   0  0  0  0  0  0  0  0  0  0  0  0
   -3.5223   -0.2461    0.0000 C   0  0  0  0  0  0  0  0  0  0  0  0
   -2.8078   -0.6586    0.0000 C   0  0  0  0  0  0  0  0  0  0  0  0
   -2.0933   -0.2461    0.0000 C   0  0  0  0  0  0  0  0  0  0  0  0
   -4.2367   -0.6586    0.0000 N   0  0  0  0  0  0  0  0  0  0  0  0
   -4.9512   -0.2461    0.0000 C   0  0  0  0  0  0  0  0  0  0  0  0
   -5.6657   -0.6586    0.0000 C   0  0  0  0  0  0  0  0  0  0  0  0
   -4.9512    0.5789    0.0000 O   0  0  0  0  0  0  0  0  0  0  0  0
    0.7157    1.4039    0.0000 C   0  0  0  0  0  0  0  0  0  0  0  0
    1.1282    0.6895    0.0000 C   0  0  0  0  0  0  0  0  0  0  0  0
    1.9532    0.6895    0.0000 C   0  0  0  0  0  0  0  0  0  0  0  0
    2.3657    1.4039    0.0000 C   0  0  0  0  0  0  0  0  0  0  0  0
    1.9532    2.1184    0.0000 C   0  0  0  0  0  0  0  0  0  0  0  0
    1.1282    2.1184    0.0000 C   0  0  0  0  0  0  0  0  0  0  0  0
    3.1907    1.4039    0.0000 N   0  0  0  0  0  0  0  0  0  0  0  0
    3.6032    0.6895    0.0000 C   0  0  0  0  0  0  0  0  0  0  0  0
    4.4282    0.6895    0.0000 N   0  0  0  0  0  0  0  0  0  0  0  0
    3.1907   -0.0250    0.0000 S   0  0  0  0  0  0  0  0  0  0  0  0
    4.8407    1.4039    0.0000 C   0  0  0  0  0  0  0  0  0  0  0  0
    5.6657    1.4039    0.0000 C   0  0  0  0  0  0  0  0  0  0  0  0
    4.4282    2.1184    0.0000 C   0  0  0  0  0  0  0  0  0  0  0  0
   -1.3789   -0.6586    0.0000 S   0  0  0  0  0  0  0  0  0  0  0  0
   -0.9664    0.0559    0.0000 O   0  0  0  0  0  0  0  0  0  0  0  0
   -1.7914   -1.3730    0.0000 O   0  0  0  0  0  0  0  0  0  0  0  0
   -0.3550   -2.1184    0.0000 C   0  0  0  0  0  0  0  0  0  0  0  0
    0.4419   -1.9049    0.0000 C   0  0  0  0  0  0  0  0  0  0  0  0
    0.6554   -1.1080    0.0000 C   0  0  0  0  0  0  0  0  0  0  0  0
    0.0720   -0.5246    0.0000 C   0  0  0  0  0  0  0  0  0  0  0  0
   -0.7249   -0.7382    0.0000 C   0  0  0  0  0  0  0  0  0  0  0  0
   -0.9384   -1.5351    0.0000 C   0  0  0  0  0  0  0  0  0  0  0  0
   -0.3550   -1.2934    0.0000 N   0  0  0  0  0  0  0  0  0  0  0  0
  1  2  4  0  0  0  0
  2  3  4  0  0  0  0
  3  4  4  0  0  0  0
  4  5  4  0  0  0  0
  5  1  4  0  0  0  0
  2  6  1  0  0  0  0
  6  7  4  0  0  0  0
  7  8  4  0  0  0  0
  8  9  4  0  0  0  0
  9 10  4  0  0  0  0
 10 11  4  0  0  0  0
 11  6  4  0  0  0  0
  9 12  1  0  0  0  0
 12 13  1  0  0  0  0
 13 14  1  0  0  0  0
 13 15  2  0  0  0  0
  4 16  1  0  0  0  0
 16 17  4  0  0  0  0
 17 18  4  0  0  0  0
 18 19  4  0  0  0  0
 19 20  4  0  0  0  0
 20 21  4  0  0  0  0
 21 16  4  0  0  0  0
 19 22  1  0  0  0  0
 22 23  1  0  0  0  0
 23 24  1  0  0  0  0
 23 25  2  0  0  0  0
 24 26  1  0  0  0  0
 26 27  1  0  0  0  0
 26 28  1  0  0  0  0
 11 29  1  0  0  0  0
 29 38  1  0  0  0  0
 29 30  2  0  0  0  0
 29 31  2  0  0  0  0
 32 33  1  0  0  0  0
 33 34  1  0  0  0  0
 34 35  1  0  0  0  0
 35 36  1  0  0  0  0
 36 37  1  0  0  0  0
 37 32  1  0  0  0  0
 32 38  1  0  0  0  0
 38 35  1  0  0  0  0
M  END
> <From>
www.bindingDB.org

> <BindingDB Reactant_set_id>
1155238

> <Ligand InChI>
InChI=1S/C27H31N5O3S3/c1-16(2)29-27(36)31-19-6-4-18(5-7-19)26-28-15-24(37-26)23-13-8-20(30-17(3)33)14-25(23)38(34,35)32-21-9-10-22(32)12-11-21/h4-8,13-16,21-22H,9-12H2,1-3H3,(H,30,33)(H2,29,31,36)

> <Ligand InChI Key>
UJBGRYVZNVFJAK-UHFFFAOYSA-N

> <BindingDB MonomerID>
546389

> <BindingDB Ligand Name>
US11291655, No D22

> <Target Name>
DNA repair protein RAD51 homolog 1

> <Target Source Organism According to Curator or DataSource>
Homo sapiens

> <Ki (nM)>


> <IC50 (nM)>


> <Kd (nM)>


> <EC50 (nM)>
<1000

> <kon (M-1-s-1)>


> <koff (s-1)>


> <pH>


> <Temp C>


> <Curation/DataSource>
US Patent

> <Article DOI>


> <BindingDB Entry DOI>
10.7270/Q2NG4TV0

> <PMID>


> <PubChem AID>
aid1806421

> <Patent Number>
US11291655

> <Authors>
Castro, AC; McComas, CC; Vacca, J

> <Date of publication>
4/5/2022

> <Date in BindingDB>
7/21/2022

> <Institution>
Cyteir Therapeutics, Inc.

> <Link to Ligand in BindingDB>
http://www.bindingdb.org/bind/chemsearch/marvin/MolStructure.jsp?monomerid=546389

> <Link to Ligand-Target Pair in BindingDB>
http://www.bindingdb.org/jsp/dbsearch/PrimarySearch_ki.jsp?energyterm=kJ/mole&tag=pol&polymerid=4676&target=DNA+repair+protein+RAD51+homolog+1&column=ki&startPg=0&Increment=50&submit=Search

> <Link to Ligand-Target Pair in BindingDB>
http://www.bindingdb.org/jsp/dbsearch/PrimarySearch_ki.jsp?energyterm=kJ/mole&tag=r21&monomerid=546389&enzyme=DNA+repair+protein+RAD51+homolog+1&column=ki&startPg=0&Increment=50&submit=Search

> <Ligand HET ID in PDB>


> <PDB ID(s) for Ligand-Target Complex>


> <PubChem CID of Ligand>
137411766

> <PubChem SID of Ligand>
469681085

> <ChEBI ID of Ligand>


> <ChEMBL ID of Ligand>


> <DrugBank ID of Ligand>


> <IUPHAR_GRAC ID of Ligand>


> <KEGG ID of Ligand>


> <ZINC ID of Ligand>


> <Number of Protein Chains in Target (bigger than 1 implies a multichain complex)>
1

> <BindingDB Target Chain Sequence>
MAMQMQLEANADTSVEEESFGPQPISRLEQCGINANDVKKLEEAGFHTVEAVAYAPKKELINIKGISEAKADKILAEAAKLVPMGFTTATEFHQRRSEIIQITTGSKELDKLLQGGIETGSITEMFGEFRTGKTQICHTLAVTCQLPIDRGGGEGKAMYIDTEGTFRPERLLAVAERYGLSGSDVLDNVAYARAFNTDHQTQLLYQASAMMVESRYALLIVDSATALYRTDYSGRGELSARQMHLARFLRMLLRLADEFGVAVVITNQVVAQVDGAAMFAADPKKPIGGNIIAHASTTRLYLRKGRGETRICKIYDSPCLPEAEAMFAINADGVGDAKD

> <PDB ID(s) of Target Chain>
1N0W,5JZC,5NP7,5NWL,8BQ2,8BR2,8BSC

> <UniProt (SwissProt) Recommended Name of Target Chain>
DNA repair protein RAD51 homolog 1

> <UniProt (SwissProt) Entry Name of Target Chain>
RAD51_HUMAN

> <UniProt (SwissProt) Primary ID of Target Chain>
Q06609

> <UniProt (SwissProt) Secondary ID(s) of Target Chain>
B0FXP0 B2R8T6 Q6FHX9 Q6ZNA8 Q9BV60

> <UniProt (SwissProt) Alternative ID(s) of Target Chain>


> <UniProt (TrEMBL) Submitted Name of Target Chain>


> <UniProt (TrEMBL) Entry Name of Target Chain>


> <UniProt (TrEMBL) Primary ID of Target Chain>


> <UniProt (TrEMBL) Secondary ID(s) of Target Chain>


> <UniProt (TrEMBL) Alternative ID(s) of Target Chain>


$$$$
00249001.cdx
  Mrv0541 07212217012D          

 37 39  0  0  0  0            999 V2000
   -1.5999    2.4886    0.0000 C   0  0  0  0  0  0  0  0  0  0  0  0
   -1.5999    1.6636    0.0000 C   0  0  0  0  0  0  0  0  0  0  0  0
   -0.8152    1.4087    0.0000 S   0  0  0  0  0  0  0  0  0  0  0  0
   -0.3303    2.0761    0.0000 C   0  0  0  0  0  0  0  0  0  0  0  0
   -0.8152    2.7435    0.0000 N   0  0  0  0  0  0  0  0  0  0  0  0
    0.4947    2.0761    0.0000 C   0  0  0  0  0  0  0  0  0  0  0  0
    0.9072    1.3616    0.0000 C   0  0  0  0  0  0  0  0  0  0  0  0
    1.7322    1.3616    0.0000 C   0  0  0  0  0  0  0  0  0  0  0  0
    2.1447    2.0761    0.0000 C   0  0  0  0  0  0  0  0  0  0  0  0
    1.7322    2.7906    0.0000 C   0  0  0  0  0  0  0  0  0  0  0  0
    0.9072    2.7906    0.0000 C   0  0  0  0  0  0  0  0  0  0  0  0
    2.9697    2.0761    0.0000 N   0  0  0  0  0  0  0  0  0  0  0  0
    3.3822    1.3616    0.0000 C   0  0  0  0  0  0  0  0  0  0  0  0
    4.2072    1.3616    0.0000 N   0  0  0  0  0  0  0  0  0  0  0  0
    2.9697    0.6472    0.0000 S   0  0  0  0  0  0  0  0  0  0  0  0
    4.6197    2.0761    0.0000 C   0  0  0  0  0  0  0  0  0  0  0  0
    5.4447    2.0761    0.0000 C   0  0  0  0  0  0  0  0  0  0  0  0
    4.2072    2.7906    0.0000 C   0  0  0  0  0  0  0  0  0  0  0  0
   -3.6946    0.8813    0.0000 C   0  0  0  0  0  0  0  0  0  0  0  0
   -3.4811    0.0844    0.0000 C   0  0  0  0  0  0  0  0  0  0  0  0
   -2.6842   -0.1292    0.0000 C   0  0  0  0  0  0  0  0  0  0  0  0
   -2.1008    0.4542    0.0000 C   0  0  0  0  0  0  0  0  0  0  0  0
   -2.3143    1.2511    0.0000 C   0  0  0  0  0  0  0  0  0  0  0  0
   -3.1112    1.4646    0.0000 C   0  0  0  0  0  0  0  0  0  0  0  0
   -1.3039    0.2407    0.0000 S   0  0  0  0  0  0  0  0  0  0  0  0
   -0.5070    0.0272    0.0000 N   0  0  0  0  0  0  0  0  0  0  0  0
   -1.0904    1.0376    0.0000 O   0  0  0  0  0  0  0  0  0  0  0  0
   -1.5174   -0.5562    0.0000 O   0  0  0  0  0  0  0  0  0  0  0  0
   -0.2935   -0.7697    0.0000 C   0  0  0  0  0  0  0  0  0  0  0  0
    0.5034   -0.9833    0.0000 C   0  0  0  0  0  0  0  0  0  0  0  0
    0.7169   -1.7801    0.0000 C   0  0  0  0  0  0  0  0  0  0  0  0
    1.5138   -1.9937    0.0000 N   0  0  0  0  0  0  0  0  0  0  0  0
    1.7273   -2.7906    0.0000 C   0  0  0  0  0  0  0  0  0  0  0  0
   -4.0644   -0.4990    0.0000 N   0  0  0  0  0  0  0  0  0  0  0  0
   -4.8613   -0.2855    0.0000 C   0  0  0  0  0  0  0  0  0  0  0  0
   -5.4447   -0.8688    0.0000 C   0  0  0  0  0  0  0  0  0  0  0  0
   -5.0748    0.5114    0.0000 O   0  0  0  0  0  0  0  0  0  0  0  0
  1  2  4  0  0  0  0
  2  3  4  0  0  0  0
  3  4  4  0  0  0  0
  4  5  4  0  0  0  0
  5  1  4  0  0  0  0
  2 23  1  0  0  0  0
  4  6  1  0  0  0  0
  6  7  4  0  0  0  0
  7  8  4  0  0  0  0
  8  9  4  0  0  0  0
  9 10  4  0  0  0  0
 10 11  4  0  0  0  0
 11  6  4  0  0  0  0
  9 12  1  0  0  0  0
 12 13  1  0  0  0  0
 13 14  1  0  0  0  0
 13 15  2  0  0  0  0
 14 16  1  0  0  0  0
 16 17  1  0  0  0  0
 16 18  1  0  0  0  0
 19 20  4  0  0  0  0
 20 21  4  0  0  0  0
 21 22  4  0  0  0  0
 22 23  4  0  0  0  0
 23 24  4  0  0  0  0
 24 19  4  0  0  0  0
 22 25  1  0  0  0  0
 25 26  1  0  0  0  0
 25 27  2  0  0  0  0
 25 28  2  0  0  0  0
 26 29  1  0  0  0  0
 29 30  1  0  0  0  0
 30 31  1  0  0  0  0
 31 32  1  0  0  0  0
 32 33  1  0  0  0  0
 20 34  1  0  0  0  0
 34 35  1  0  0  0  0
 35 36  1  0  0  0  0
 35 37  2  0  0  0  0
M  END
> <From>
www.bindingDB.org

> <BindingDB Reactant_set_id>
1155239

> <Ligand InChI>
InChI=1S/C25H32N6O3S3/c1-16(2)29-25(35)31-19-8-6-18(7-9-19)24-27-15-22(36-24)21-11-10-20(30-17(3)32)14-23(21)37(33,34)28-13-5-12-26-4/h6-11,14-16,26,28H,5,12-13H2,1-4H3,(H,30,32)(H2,29,31,35)

> <Ligand InChI Key>
MENKKBZNPSMUIL-UHFFFAOYSA-N

> <BindingDB MonomerID>
546390

> <BindingDB Ligand Name>
US11291655, No D23

> <Target Name>
DNA repair protein RAD51 homolog 1

> <Target Source Organism According to Curator or DataSource>
Homo sapiens

> <Ki (nM)>


> <IC50 (nM)>


> <Kd (nM)>


> <EC50 (nM)>
>10000

> <kon (M-1-s-1)>


> <koff (s-1)>


> <pH>


> <Temp C>


> <Curation/DataSource>
US Patent

> <Article DOI>


> <BindingDB Entry DOI>
10.7270/Q2NG4TV0

> <PMID>


> <PubChem AID>
aid1806421

> <Patent Number>
US11291655

> <Authors>
Castro, AC; McComas, CC; Vacca, J

> <Date of publication>
4/5/2022

> <Date in BindingDB>
7/21/2022

> <Institution>
Cyteir Therapeutics, Inc.

> <Link to Ligand in BindingDB>
http://www.bindingdb.org/bind/chemsearch/marvin/MolStructure.jsp?monomerid=546390

> <Link to Ligand-Target Pair in BindingDB>
http://www.bindingdb.org/jsp/dbsearch/PrimarySearch_ki.jsp?energyterm=kJ/mole&tag=pol&polymerid=4676&target=DNA+repair+protein+RAD51+homolog+1&column=ki&startPg=0&Increment=50&submit=Search

> <Link to Ligand-Target Pair in BindingDB>
http://www.bindingdb.org/jsp/dbsearch/PrimarySearch_ki.jsp?energyterm=kJ/mole&tag=r21&monomerid=546390&enzyme=DNA+repair+protein+RAD51+homolog+1&column=ki&startPg=0&Increment=50&submit=Search

> <Ligand HET ID in PDB>


> <PDB ID(s) for Ligand-Target Complex>


> <PubChem CID of Ligand>
137411978

> <PubChem SID of Ligand>
469681086

> <ChEBI ID of Ligand>


> <ChEMBL ID of Ligand>


> <DrugBank ID of Ligand>


> <IUPHAR_GRAC ID of Ligand>


> <KEGG ID of Ligand>


> <ZINC ID of Ligand>


> <Number of Protein Chains in Target (bigger than 1 implies a multichain complex)>
1

> <BindingDB Target Chain Sequence>
MAMQMQLEANADTSVEEESFGPQPISRLEQCGINANDVKKLEEAGFHTVEAVAYAPKKELINIKGISEAKADKILAEAAKLVPMGFTTATEFHQRRSEIIQITTGSKELDKLLQGGIETGSITEMFGEFRTGKTQICHTLAVTCQLPIDRGGGEGKAMYIDTEGTFRPERLLAVAERYGLSGSDVLDNVAYARAFNTDHQTQLLYQASAMMVESRYALLIVDSATALYRTDYSGRGELSARQMHLARFLRMLLRLADEFGVAVVITNQVVAQVDGAAMFAADPKKPIGGNIIAHASTTRLYLRKGRGETRICKIYDSPCLPEAEAMFAINADGVGDAKD

> <PDB ID(s) of Target Chain>
1N0W,5JZC,5NP7,5NWL,8BQ2,8BR2,8BSC

> <UniProt (SwissProt) Recommended Name of Target Chain>
DNA repair protein RAD51 homolog 1

> <UniProt (SwissProt) Entry Name of Target Chain>
RAD51_HUMAN

> <UniProt (SwissProt) Primary ID of Target Chain>
Q06609

> <UniProt (SwissProt) Secondary ID(s) of Target Chain>
B0FXP0 B2R8T6 Q6FHX9 Q6ZNA8 Q9BV60

> <UniProt (SwissProt) Alternative ID(s) of Target Chain>


> <UniProt (TrEMBL) Submitted Name of Target Chain>


> <UniProt (TrEMBL) Entry Name of Target Chain>


> <UniProt (TrEMBL) Primary ID of Target Chain>


> <UniProt (TrEMBL) Secondary ID(s) of Target Chain>


> <UniProt (TrEMBL) Alternative ID(s) of Target Chain>


$$$$
00250001.cdx
  Mrv0541 07212217012D          

 36 38  0  0  0  0            999 V2000
   -1.5999    2.0901    0.0000 C   0  0  0  0  0  0  0  0  0  0  0  0
   -1.5999    1.2651    0.0000 C   0  0  0  0  0  0  0  0  0  0  0  0
   -0.8152    1.0102    0.0000 S   0  0  0  0  0  0  0  0  0  0  0  0
   -0.3303    1.6776    0.0000 C   0  0  0  0  0  0  0  0  0  0  0  0
   -0.8152    2.3451    0.0000 N   0  0  0  0  0  0  0  0  0  0  0  0
    0.4947    1.6776    0.0000 C   0  0  0  0  0  0  0  0  0  0  0  0
    0.9072    0.9632    0.0000 C   0  0  0  0  0  0  0  0  0  0  0  0
    1.7322    0.9632    0.0000 C   0  0  0  0  0  0  0  0  0  0  0  0
    2.1447    1.6776    0.0000 C   0  0  0  0  0  0  0  0  0  0  0  0
    1.7322    2.3921    0.0000 C   0  0  0  0  0  0  0  0  0  0  0  0
    0.9072    2.3921    0.0000 C   0  0  0  0  0  0  0  0  0  0  0  0
    2.9697    1.6776    0.0000 N   0  0  0  0  0  0  0  0  0  0  0  0
    3.3822    0.9632    0.0000 C   0  0  0  0  0  0  0  0  0  0  0  0
    4.2072    0.9632    0.0000 N   0  0  0  0  0  0  0  0  0  0  0  0
    2.9697    0.2487    0.0000 S   0  0  0  0  0  0  0  0  0  0  0  0
    4.6197    1.6776    0.0000 C   0  0  0  0  0  0  0  0  0  0  0  0
    5.4447    1.6776    0.0000 C   0  0  0  0  0  0  0  0  0  0  0  0
    4.2072    2.3921    0.0000 C   0  0  0  0  0  0  0  0  0  0  0  0
   -3.6946    0.4828    0.0000 C   0  0  0  0  0  0  0  0  0  0  0  0
   -3.4811   -0.3141    0.0000 C   0  0  0  0  0  0  0  0  0  0  0  0
   -2.6842   -0.5276    0.0000 C   0  0  0  0  0  0  0  0  0  0  0  0
   -2.1008    0.0558    0.0000 C   0  0  0  0  0  0  0  0  0  0  0  0
   -2.3143    0.8526    0.0000 C   0  0  0  0  0  0  0  0  0  0  0  0
   -3.1112    1.0662    0.0000 C   0  0  0  0  0  0  0  0  0  0  0  0
   -1.3039   -0.1578    0.0000 S   0  0  0  0  0  0  0  0  0  0  0  0
   -0.5070   -0.3713    0.0000 N   0  0  0  0  0  0  0  0  0  0  0  0
   -1.0904    0.6391    0.0000 O   0  0  0  0  0  0  0  0  0  0  0  0
   -1.5174   -0.9547    0.0000 O   0  0  0  0  0  0  0  0  0  0  0  0
   -0.2935   -1.1682    0.0000 C   0  0  0  0  0  0  0  0  0  0  0  0
    0.5034   -1.3817    0.0000 C   0  0  0  0  0  0  0  0  0  0  0  0
    0.7169   -2.1786    0.0000 C   0  0  0  0  0  0  0  0  0  0  0  0
    1.5138   -2.3921    0.0000 N   0  0  0  0  0  0  0  0  0  0  0  0
   -4.0644   -0.8974    0.0000 N   0  0  0  0  0  0  0  0  0  0  0  0
   -4.8613   -0.6839    0.0000 C   0  0  0  0  0  0  0  0  0  0  0  0
   -5.4447   -1.2673    0.0000 C   0  0  0  0  0  0  0  0  0  0  0  0
   -5.0748    0.1130    0.0000 O   0  0  0  0  0  0  0  0  0  0  0  0
  1  2  4  0  0  0  0
  2  3  4  0  0  0  0
  3  4  4  0  0  0  0
  4  5  4  0  0  0  0
  5  1  4  0  0  0  0
  2 23  1  0  0  0  0
  4  6  1  0  0  0  0
  6  7  4  0  0  0  0
  7  8  4  0  0  0  0
  8  9  4  0  0  0  0
  9 10  4  0  0  0  0
 10 11  4  0  0  0  0
 11  6  4  0  0  0  0
  9 12  1  0  0  0  0
 12 13  1  0  0  0  0
 13 14  1  0  0  0  0
 13 15  2  0  0  0  0
 14 16  1  0  0  0  0
 16 17  1  0  0  0  0
 16 18  1  0  0  0  0
 19 20  4  0  0  0  0
 20 21  4  0  0  0  0
 21 22  4  0  0  0  0
 22 23  4  0  0  0  0
 23 24  4  0  0  0  0
 24 19  4  0  0  0  0
 22 25  1  0  0  0  0
 25 26  1  0  0  0  0
 25 27  2  0  0  0  0
 25 28  2  0  0  0  0
 26 29  1  0  0  0  0
 29 30  1  0  0  0  0
 30 31  1  0  0  0  0
 31 32  1  0  0  0  0
 20 33  1  0  0  0  0
 33 34  1  0  0  0  0
 34 35  1  0  0  0  0
 34 36  2  0  0  0  0
M  END
> <From>
www.bindingDB.org

> <BindingDB Reactant_set_id>
1155240

> <Ligand InChI>
InChI=1S/C24H30N6O3S3/c1-15(2)28-24(34)30-18-7-5-17(6-8-18)23-26-14-21(35-23)20-10-9-19(29-16(3)31)13-22(20)36(32,33)27-12-4-11-25/h5-10,13-15,27H,4,11-12,25H2,1-3H3,(H,29,31)(H2,28,30,34)

> <Ligand InChI Key>
NGKOZWQUXVKTMF-UHFFFAOYSA-N

> <BindingDB MonomerID>
546391

> <BindingDB Ligand Name>
US11291655, No D24

> <Target Name>
DNA repair protein RAD51 homolog 1

> <Target Source Organism According to Curator or DataSource>
Homo sapiens

> <Ki (nM)>


> <IC50 (nM)>


> <Kd (nM)>


> <EC50 (nM)>
>10000

> <kon (M-1-s-1)>


> <koff (s-1)>


> <pH>


> <Temp C>


> <Curation/DataSource>
US Patent

> <Article DOI>


> <BindingDB Entry DOI>
10.7270/Q2NG4TV0

> <PMID>


> <PubChem AID>
aid1806421

> <Patent Number>
US11291655

> <Authors>
Castro, AC; McComas, CC; Vacca, J

> <Date of publication>
4/5/2022

> <Date in BindingDB>
7/21/2022

> <Institution>
Cyteir Therapeutics, Inc.

> <Link to Ligand in BindingDB>
http://www.bindingdb.org/bind/chemsearch/marvin/MolStructure.jsp?monomerid=546391

> <Link to Ligand-Target Pair in BindingDB>
http://www.bindingdb.org/jsp/dbsearch/PrimarySearch_ki.jsp?energyterm=kJ/mole&tag=pol&polymerid=4676&target=DNA+repair+protein+RAD51+homolog+1&column=ki&startPg=0&Increment=50&submit=Search

> <Link to Ligand-Target Pair in BindingDB>
http://www.bindingdb.org/jsp/dbsearch/PrimarySearch_ki.jsp?energyterm=kJ/mole&tag=r21&monomerid=546391&enzyme=DNA+repair+protein+RAD51+homolog+1&column=ki&startPg=0&Increment=50&submit=Search

> <Ligand HET ID in PDB>


> <PDB ID(s) for Ligand-Target Complex>


> <PubChem CID of Ligand>
146539333

> <PubChem SID of Ligand>
469681087

> <ChEBI ID of Ligand>


> <ChEMBL ID of Ligand>


> <DrugBank ID of Ligand>


> <IUPHAR_GRAC ID of Ligand>


> <KEGG ID of Ligand>


> <ZINC ID of Ligand>


> <Number of Protein Chains in Target (bigger than 1 implies a multichain complex)>
1

> <BindingDB Target Chain Sequence>
MAMQMQLEANADTSVEEESFGPQPISRLEQCGINANDVKKLEEAGFHTVEAVAYAPKKELINIKGISEAKADKILAEAAKLVPMGFTTATEFHQRRSEIIQITTGSKELDKLLQGGIETGSITEMFGEFRTGKTQICHTLAVTCQLPIDRGGGEGKAMYIDTEGTFRPERLLAVAERYGLSGSDVLDNVAYARAFNTDHQTQLLYQASAMMVESRYALLIVDSATALYRTDYSGRGELSARQMHLARFLRMLLRLADEFGVAVVITNQVVAQVDGAAMFAADPKKPIGGNIIAHASTTRLYLRKGRGETRICKIYDSPCLPEAEAMFAINADGVGDAKD

> <PDB ID(s) of Target Chain>
1N0W,5JZC,5NP7,5NWL,8BQ2,8BR2,8BSC

> <UniProt (SwissProt) Recommended Name of Target Chain>
DNA repair protein RAD51 homolog 1

> <UniProt (SwissProt) Entry Name of Target Chain>
RAD51_HUMAN

> <UniProt (SwissProt) Primary ID of Target Chain>
Q06609

> <UniProt (SwissProt) Secondary ID(s) of Target Chain>
B0FXP0 B2R8T6 Q6FHX9 Q6ZNA8 Q9BV60

> <UniProt (SwissProt) Alternative ID(s) of Target Chain>


> <UniProt (TrEMBL) Submitted Name of Target Chain>


> <UniProt (TrEMBL) Entry Name of Target Chain>


> <UniProt (TrEMBL) Primary ID of Target Chain>


> <UniProt (TrEMBL) Secondary ID(s) of Target Chain>


> <UniProt (TrEMBL) Alternative ID(s) of Target Chain>


$$$$
00251001.cdx
  Mrv0541 07212217012D          

 38 40  0  0  0  0            999 V2000
   -1.5999    2.4886    0.0000 C   0  0  0  0  0  0  0  0  0  0  0  0
   -1.5999    1.6636    0.0000 C   0  0  0  0  0  0  0  0  0  0  0  0
   -0.8152    1.4087    0.0000 S   0  0  0  0  0  0  0  0  0  0  0  0
   -0.3303    2.0761    0.0000 C   0  0  0  0  0  0  0  0  0  0  0  0
   -0.8152    2.7435    0.0000 N   0  0  0  0  0  0  0  0  0  0  0  0
    0.4947    2.0761    0.0000 C   0  0  0  0  0  0  0  0  0  0  0  0
    0.9072    1.3616    0.0000 C   0  0  0  0  0  0  0  0  0  0  0  0
    1.7322    1.3616    0.0000 C   0  0  0  0  0  0  0  0  0  0  0  0
    2.1447    2.0761    0.0000 C   0  0  0  0  0  0  0  0  0  0  0  0
    1.7322    2.7906    0.0000 C   0  0  0  0  0  0  0  0  0  0  0  0
    0.9072    2.7906    0.0000 C   0  0  0  0  0  0  0  0  0  0  0  0
    2.9697    2.0761    0.0000 N   0  0  0  0  0  0  0  0  0  0  0  0
    3.3822    1.3616    0.0000 C   0  0  0  0  0  0  0  0  0  0  0  0
    4.2072    1.3616    0.0000 N   0  0  0  0  0  0  0  0  0  0  0  0
    2.9697    0.6472    0.0000 S   0  0  0  0  0  0  0  0  0  0  0  0
    4.6197    2.0761    0.0000 C   0  0  0  0  0  0  0  0  0  0  0  0
    5.4447    2.0761    0.0000 C   0  0  0  0  0  0  0  0  0  0  0  0
    4.2072    2.7906    0.0000 C   0  0  0  0  0  0  0  0  0  0  0  0
   -3.6946    0.8813    0.0000 C   0  0  0  0  0  0  0  0  0  0  0  0
   -3.4811    0.0844    0.0000 C   0  0  0  0  0  0  0  0  0  0  0  0
   -2.6842   -0.1292    0.0000 C   0  0  0  0  0  0  0  0  0  0  0  0
   -2.1008    0.4542    0.0000 C   0  0  0  0  0  0  0  0  0  0  0  0
   -2.3143    1.2511    0.0000 C   0  0  0  0  0  0  0  0  0  0  0  0
   -3.1112    1.4646    0.0000 C   0  0  0  0  0  0  0  0  0  0  0  0
   -1.3039    0.2407    0.0000 S   0  0  0  0  0  0  0  0  0  0  0  0
   -0.5070    0.0272    0.0000 N   0  0  0  0  0  0  0  0  0  0  0  0
   -1.0904    1.0376    0.0000 O   0  0  0  0  0  0  0  0  0  0  0  0
   -1.5174   -0.5562    0.0000 O   0  0  0  0  0  0  0  0  0  0  0  0
   -0.2935   -0.7697    0.0000 C   0  0  0  0  0  0  0  0  0  0  0  0
    0.5034   -0.9833    0.0000 C   0  0  0  0  0  0  0  0  0  0  0  0
    0.7169   -1.7801    0.0000 C   0  0  0  0  0  0  0  0  0  0  0  0
    1.5138   -1.9937    0.0000 N   0  0  0  0  0  0  0  0  0  0  0  0
    1.7273   -2.7906    0.0000 C   0  0  0  0  0  0  0  0  0  0  0  0
   -4.0644   -0.4990    0.0000 N   0  0  0  0  0  0  0  0  0  0  0  0
   -4.8613   -0.2855    0.0000 C   0  0  0  0  0  0  0  0  0  0  0  0
   -5.4447   -0.8688    0.0000 C   0  0  0  0  0  0  0  0  0  0  0  0
   -5.0748    0.5114    0.0000 O   0  0  0  0  0  0  0  0  0  0  0  0
    2.0972   -1.4103    0.0000 C   0  0  0  0  0  0  0  0  0  0  0  0
  1  2  4  0  0  0  0
  2  3  4  0  0  0  0
  3  4  4  0  0  0  0
  4  5  4  0  0  0  0
  5  1  4  0  0  0  0
  2 23  1  0  0  0  0
  4  6  1  0  0  0  0
  6  7  4  0  0  0  0
  7  8  4  0  0  0  0
  8  9  4  0  0  0  0
  9 10  4  0  0  0  0
 10 11  4  0  0  0  0
 11  6  4  0  0  0  0
  9 12  1  0  0  0  0
 12 13  1  0  0  0  0
 13 14  1  0  0  0  0
 13 15  2  0  0  0  0
 14 16  1  0  0  0  0
 16 17  1  0  0  0  0
 16 18  1  0  0  0  0
 19 20  4  0  0  0  0
 20 21  4  0  0  0  0
 21 22  4  0  0  0  0
 22 23  4  0  0  0  0
 23 24  4  0  0  0  0
 24 19  4  0  0  0  0
 22 25  1  0  0  0  0
 25 26  1  0  0  0  0
 25 27  2  0  0  0  0
 25 28  2  0  0  0  0
 26 29  1  0  0  0  0
 29 30  1  0  0  0  0
 30 31  1  0  0  0  0
 31 32  1  0  0  0  0
 32 33  1  0  0  0  0
 20 34  1  0  0  0  0
 34 35  1  0  0  0  0
 35 36  1  0  0  0  0
 35 37  2  0  0  0  0
 32 38  1  0  0  0  0
M  END
> <From>
www.bindingDB.org

> <BindingDB Reactant_set_id>
1155241

> <Ligand InChI>
InChI=1S/C26H34N6O3S3/c1-17(2)29-26(36)31-20-9-7-19(8-10-20)25-27-16-23(37-25)22-12-11-21(30-18(3)33)15-24(22)38(34,35)28-13-6-14-32(4)5/h7-12,15-17,28H,6,13-14H2,1-5H3,(H,30,33)(H2,29,31,36)

> <Ligand InChI Key>
GHYKQHVDXLBYFL-UHFFFAOYSA-N

> <BindingDB MonomerID>
546392

> <BindingDB Ligand Name>
US11291655, No D25

> <Target Name>
DNA repair protein RAD51 homolog 1

> <Target Source Organism According to Curator or DataSource>
Homo sapiens

> <Ki (nM)>


> <IC50 (nM)>


> <Kd (nM)>


> <EC50 (nM)>
<1000

> <kon (M-1-s-1)>


> <koff (s-1)>


> <pH>


> <Temp C>


> <Curation/DataSource>
US Patent

> <Article DOI>


> <BindingDB Entry DOI>
10.7270/Q2NG4TV0

> <PMID>


> <PubChem AID>
aid1806421

> <Patent Number>
US11291655

> <Authors>
Castro, AC; McComas, CC; Vacca, J

> <Date of publication>
4/5/2022

> <Date in BindingDB>
7/21/2022

> <Institution>
Cyteir Therapeutics, Inc.

> <Link to Ligand in BindingDB>
http://www.bindingdb.org/bind/chemsearch/marvin/MolStructure.jsp?monomerid=546392

> <Link to Ligand-Target Pair in BindingDB>
http://www.bindingdb.org/jsp/dbsearch/PrimarySearch_ki.jsp?energyterm=kJ/mole&tag=pol&polymerid=4676&target=DNA+repair+protein+RAD51+homolog+1&column=ki&startPg=0&Increment=50&submit=Search

> <Link to Ligand-Target Pair in BindingDB>
http://www.bindingdb.org/jsp/dbsearch/PrimarySearch_ki.jsp?energyterm=kJ/mole&tag=r21&monomerid=546392&enzyme=DNA+repair+protein+RAD51+homolog+1&column=ki&startPg=0&Increment=50&submit=Search

> <Ligand HET ID in PDB>


> <PDB ID(s) for Ligand-Target Complex>


> <PubChem CID of Ligand>
142516789

> <PubChem SID of Ligand>
469681088

> <ChEBI ID of Ligand>


> <ChEMBL ID of Ligand>


> <DrugBank ID of Ligand>


> <IUPHAR_GRAC ID of Ligand>


> <KEGG ID of Ligand>


> <ZINC ID of Ligand>


> <Number of Protein Chains in Target (bigger than 1 implies a multichain complex)>
1

> <BindingDB Target Chain Sequence>
MAMQMQLEANADTSVEEESFGPQPISRLEQCGINANDVKKLEEAGFHTVEAVAYAPKKELINIKGISEAKADKILAEAAKLVPMGFTTATEFHQRRSEIIQITTGSKELDKLLQGGIETGSITEMFGEFRTGKTQICHTLAVTCQLPIDRGGGEGKAMYIDTEGTFRPERLLAVAERYGLSGSDVLDNVAYARAFNTDHQTQLLYQASAMMVESRYALLIVDSATALYRTDYSGRGELSARQMHLARFLRMLLRLADEFGVAVVITNQVVAQVDGAAMFAADPKKPIGGNIIAHASTTRLYLRKGRGETRICKIYDSPCLPEAEAMFAINADGVGDAKD

> <PDB ID(s) of Target Chain>
1N0W,5JZC,5NP7,5NWL,8BQ2,8BR2,8BSC

> <UniProt (SwissProt) Recommended Name of Target Chain>
DNA repair protein RAD51 homolog 1

> <UniProt (SwissProt) Entry Name of Target Chain>
RAD51_HUMAN

> <UniProt (SwissProt) Primary ID of Target Chain>
Q06609

> <UniProt (SwissProt) Secondary ID(s) of Target Chain>
B0FXP0 B2R8T6 Q6FHX9 Q6ZNA8 Q9BV60

> <UniProt (SwissProt) Alternative ID(s) of Target Chain>


> <UniProt (TrEMBL) Submitted Name of Target Chain>


> <UniProt (TrEMBL) Entry Name of Target Chain>


> <UniProt (TrEMBL) Primary ID of Target Chain>


> <UniProt (TrEMBL) Secondary ID(s) of Target Chain>


> <UniProt (TrEMBL) Alternative ID(s) of Target Chain>


$$$$
00252001.cdx
  Mrv0541 07212217012D          

 38 40  0  0  0  0            999 V2000
   -1.3789    0.7293    0.0000 C   0  0  0  0  0  0  0  0  0  0  0  0
   -1.3789   -0.0957    0.0000 C   0  0  0  0  0  0  0  0  0  0  0  0
   -0.5942   -0.3507    0.0000 S   0  0  0  0  0  0  0  0  0  0  0  0
   -0.1093    0.3168    0.0000 C   0  0  0  0  0  0  0  0  0  0  0  0
   -0.5942    0.9842    0.0000 N   0  0  0  0  0  0  0  0  0  0  0  0
    0.7157    0.3168    0.0000 C   0  0  0  0  0  0  0  0  0  0  0  0
    1.1282   -0.3977    0.0000 C   0  0  0  0  0  0  0  0  0  0  0  0
    1.9532   -0.3977    0.0000 C   0  0  0  0  0  0  0  0  0  0  0  0
    2.3657    0.3168    0.0000 C   0  0  0  0  0  0  0  0  0  0  0  0
    1.9532    1.0313    0.0000 C   0  0  0  0  0  0  0  0  0  0  0  0
    1.1282    1.0313    0.0000 C   0  0  0  0  0  0  0  0  0  0  0  0
    3.1907    0.3168    0.0000 N   0  0  0  0  0  0  0  0  0  0  0  0
    3.6032    1.0313    0.0000 C   0  0  0  0  0  0  0  0  0  0  0  0
    4.4282    1.0313    0.0000 N   0  0  0  0  0  0  0  0  0  0  0  0
    3.1907    1.7457    0.0000 S   0  0  0  0  0  0  0  0  0  0  0  0
    4.8407    1.7457    0.0000 C   0  0  0  0  0  0  0  0  0  0  0  0
    5.6657    1.7457    0.0000 C   0  0  0  0  0  0  0  0  0  0  0  0
    4.4282    2.4602    0.0000 C   0  0  0  0  0  0  0  0  0  0  0  0
   -2.0933   -0.5082    0.0000 C   0  0  0  0  0  0  0  0  0  0  0  0
   -2.8078   -0.0957    0.0000 C   0  0  0  0  0  0  0  0  0  0  0  0
   -3.5223   -0.5082    0.0000 C   0  0  0  0  0  0  0  0  0  0  0  0
   -3.5223   -1.3332    0.0000 C   0  0  0  0  0  0  0  0  0  0  0  0
   -2.8078   -1.7457    0.0000 C   0  0  0  0  0  0  0  0  0  0  0  0
   -2.0933   -1.3332    0.0000 C   0  0  0  0  0  0  0  0  0  0  0  0
   -4.2367   -1.7457    0.0000 N   0  0  0  0  0  0  0  0  0  0  0  0
   -4.9512   -1.3332    0.0000 C   0  0  0  0  0  0  0  0  0  0  0  0
   -5.6657   -1.7457    0.0000 C   0  0  0  0  0  0  0  0  0  0  0  0
   -4.9512   -0.5082    0.0000 O   0  0  0  0  0  0  0  0  0  0  0  0
   -1.3789   -1.7457    0.0000 S   0  0  0  0  0  0  0  0  0  0  0  0
   -0.6644   -2.1582    0.0000 N   0  0  0  0  0  0  0  0  0  0  0  0
   -0.9664   -1.0313    0.0000 O   0  0  0  0  0  0  0  0  0  0  0  0
   -1.7914   -2.4602    0.0000 O   0  0  0  0  0  0  0  0  0  0  0  0
    0.0501   -1.7457    0.0000 C   0  0  0  0  0  0  0  0  0  0  0  0
    0.7646   -2.1582    0.0000 C   0  0  0  0  0  0  0  0  0  0  0  0
    1.4790   -1.7457    0.0000 O   0  0  0  0  0  0  0  0  0  0  0  0
    2.1935   -2.1582    0.0000 C   0  0  0  0  0  0  0  0  0  0  0  0
    2.9080   -1.7457    0.0000 C   0  0  0  0  0  0  0  0  0  0  0  0
    3.6224   -2.1582    0.0000 O   0  0  0  0  0  0  0  0  0  0  0  0
  1  2  4  0  0  0  0
  2  3  4  0  0  0  0
  3  4  4  0  0  0  0
  4  5  4  0  0  0  0
  5  1  4  0  0  0  0
  4  6  1  0  0  0  0
  6  7  4  0  0  0  0
  7  8  4  0  0  0  0
  8  9  4  0  0  0  0
  9 10  4  0  0  0  0
 10 11  4  0  0  0  0
 11  6  4  0  0  0  0
  9 12  1  0  0  0  0
 12 13  1  0  0  0  0
 13 14  1  0  0  0  0
 13 15  2  0  0  0  0
 14 16  1  0  0  0  0
 16 17  1  0  0  0  0
 16 18  1  0  0  0  0
  2 19  1  0  0  0  0
 19 20  4  0  0  0  0
 20 21  4  0  0  0  0
 21 22  4  0  0  0  0
 22 23  4  0  0  0  0
 23 24  4  0  0  0  0
 24 19  4  0  0  0  0
 22 25  1  0  0  0  0
 25 26  1  0  0  0  0
 26 27  1  0  0  0  0
 26 28  2  0  0  0  0
 24 29  1  0  0  0  0
 29 30  1  0  0  0  0
 29 31  2  0  0  0  0
 29 32  2  0  0  0  0
 30 33  1  0  0  0  0
 33 34  1  0  0  0  0
 34 35  1  0  0  0  0
 35 36  1  0  0  0  0
 36 37  1  0  0  0  0
 37 38  1  0  0  0  0
M  END
> <From>
www.bindingDB.org

> <BindingDB Reactant_set_id>
1155242

> <Ligand InChI>
InChI=1S/C25H31N5O5S3/c1-16(2)28-25(36)30-19-6-4-18(5-7-19)24-26-15-22(37-24)21-9-8-20(29-17(3)32)14-23(21)38(33,34)27-10-12-35-13-11-31/h4-9,14-16,27,31H,10-13H2,1-3H3,(H,29,32)(H2,28,30,36)

> <Ligand InChI Key>
APIDOCKECRJVPZ-UHFFFAOYSA-N

> <BindingDB MonomerID>
546393

> <BindingDB Ligand Name>
US11291655, No D26

> <Target Name>
DNA repair protein RAD51 homolog 1

> <Target Source Organism According to Curator or DataSource>
Homo sapiens

> <Ki (nM)>


> <IC50 (nM)>


> <Kd (nM)>


> <EC50 (nM)>
>10000

> <kon (M-1-s-1)>


> <koff (s-1)>


> <pH>


> <Temp C>


> <Curation/DataSource>
US Patent

> <Article DOI>


> <BindingDB Entry DOI>
10.7270/Q2NG4TV0

> <PMID>


> <PubChem AID>
aid1806421

> <Patent Number>
US11291655

> <Authors>
Castro, AC; McComas, CC; Vacca, J

> <Date of publication>
4/5/2022

> <Date in BindingDB>
7/21/2022

> <Institution>
Cyteir Therapeutics, Inc.

> <Link to Ligand in BindingDB>
http://www.bindingdb.org/bind/chemsearch/marvin/MolStructure.jsp?monomerid=546393

> <Link to Ligand-Target Pair in BindingDB>
http://www.bindingdb.org/jsp/dbsearch/PrimarySearch_ki.jsp?energyterm=kJ/mole&tag=pol&polymerid=4676&target=DNA+repair+protein+RAD51+homolog+1&column=ki&startPg=0&Increment=50&submit=Search

> <Link to Ligand-Target Pair in BindingDB>
http://www.bindingdb.org/jsp/dbsearch/PrimarySearch_ki.jsp?energyterm=kJ/mole&tag=r21&monomerid=546393&enzyme=DNA+repair+protein+RAD51+homolog+1&column=ki&startPg=0&Increment=50&submit=Search

> <Ligand HET ID in PDB>


> <PDB ID(s) for Ligand-Target Complex>


> <PubChem CID of Ligand>
137412120

> <PubChem SID of Ligand>
469681089

> <ChEBI ID of Ligand>


> <ChEMBL ID of Ligand>


> <DrugBank ID of Ligand>


> <IUPHAR_GRAC ID of Ligand>


> <KEGG ID of Ligand>


> <ZINC ID of Ligand>


> <Number of Protein Chains in Target (bigger than 1 implies a multichain complex)>
1

> <BindingDB Target Chain Sequence>
MAMQMQLEANADTSVEEESFGPQPISRLEQCGINANDVKKLEEAGFHTVEAVAYAPKKELINIKGISEAKADKILAEAAKLVPMGFTTATEFHQRRSEIIQITTGSKELDKLLQGGIETGSITEMFGEFRTGKTQICHTLAVTCQLPIDRGGGEGKAMYIDTEGTFRPERLLAVAERYGLSGSDVLDNVAYARAFNTDHQTQLLYQASAMMVESRYALLIVDSATALYRTDYSGRGELSARQMHLARFLRMLLRLADEFGVAVVITNQVVAQVDGAAMFAADPKKPIGGNIIAHASTTRLYLRKGRGETRICKIYDSPCLPEAEAMFAINADGVGDAKD

> <PDB ID(s) of Target Chain>
1N0W,5JZC,5NP7,5NWL,8BQ2,8BR2,8BSC

> <UniProt (SwissProt) Recommended Name of Target Chain>
DNA repair protein RAD51 homolog 1

> <UniProt (SwissProt) Entry Name of Target Chain>
RAD51_HUMAN

> <UniProt (SwissProt) Primary ID of Target Chain>
Q06609

> <UniProt (SwissProt) Secondary ID(s) of Target Chain>
B0FXP0 B2R8T6 Q6FHX9 Q6ZNA8 Q9BV60

> <UniProt (SwissProt) Alternative ID(s) of Target Chain>


> <UniProt (TrEMBL) Submitted Name of Target Chain>


> <UniProt (TrEMBL) Entry Name of Target Chain>


> <UniProt (TrEMBL) Primary ID of Target Chain>


> <UniProt (TrEMBL) Secondary ID(s) of Target Chain>


> <UniProt (TrEMBL) Alternative ID(s) of Target Chain>


$$$$
00253001.cdx
  Mrv0541 07212217012D          

 36 38  0  0  0  0            999 V2000
   -1.3789    2.5303    0.0000 C   0  0  0  0  0  0  0  0  0  0  0  0
   -1.3789    1.7053    0.0000 C   0  0  0  0  0  0  0  0  0  0  0  0
   -0.5942    1.4503    0.0000 S   0  0  0  0  0  0  0  0  0  0  0  0
   -0.1093    2.1178    0.0000 C   0  0  0  0  0  0  0  0  0  0  0  0
   -0.5942    2.7852    0.0000 N   0  0  0  0  0  0  0  0  0  0  0  0
    0.7157    2.1178    0.0000 C   0  0  0  0  0  0  0  0  0  0  0  0
    1.1282    1.4033    0.0000 C   0  0  0  0  0  0  0  0  0  0  0  0
    1.9532    1.4033    0.0000 C   0  0  0  0  0  0  0  0  0  0  0  0
    2.3657    2.1178    0.0000 C   0  0  0  0  0  0  0  0  0  0  0  0
    1.9532    2.8322    0.0000 C   0  0  0  0  0  0  0  0  0  0  0  0
    1.1282    2.8322    0.0000 C   0  0  0  0  0  0  0  0  0  0  0  0
    3.1907    2.1178    0.0000 N   0  0  0  0  0  0  0  0  0  0  0  0
   -2.0933    1.2928    0.0000 C   0  0  0  0  0  0  0  0  0  0  0  0
   -2.8078    1.7053    0.0000 C   0  0  0  0  0  0  0  0  0  0  0  0
   -3.5223    1.2928    0.0000 C   0  0  0  0  0  0  0  0  0  0  0  0
   -3.5223    0.4678    0.0000 C   0  0  0  0  0  0  0  0  0  0  0  0
   -2.8078    0.0553    0.0000 C   0  0  0  0  0  0  0  0  0  0  0  0
   -2.0933    0.4678    0.0000 C   0  0  0  0  0  0  0  0  0  0  0  0
   -4.2367    0.0553    0.0000 N   0  0  0  0  0  0  0  0  0  0  0  0
   -4.9512    0.4678    0.0000 C   0  0  0  0  0  0  0  0  0  0  0  0
   -5.6657    0.0553    0.0000 C   0  0  0  0  0  0  0  0  0  0  0  0
   -4.9512    1.2928    0.0000 O   0  0  0  0  0  0  0  0  0  0  0  0
   -1.3789    0.0553    0.0000 S   0  0  0  0  0  0  0  0  0  0  0  0
   -0.6644   -0.3572    0.0000 N   0  0  0  0  0  0  0  0  0  0  0  0
   -0.9664    0.7697    0.0000 O   0  0  0  0  0  0  0  0  0  0  0  0
   -1.7914   -0.6592    0.0000 O   0  0  0  0  0  0  0  0  0  0  0  0
   -0.6644   -1.1822    0.0000 C   0  0  0  0  0  0  0  0  0  0  0  0
    0.0501   -1.5947    0.0000 C   0  0  0  0  0  0  0  0  0  0  0  0
    0.0501   -2.4197    0.0000 O   0  0  0  0  0  0  0  0  0  0  0  0
    0.7646   -2.8322    0.0000 C   0  0  0  0  0  0  0  0  0  0  0  0
    3.6032    1.4033    0.0000 C   0  0  0  0  0  0  0  0  0  0  0  0
    4.4282    1.4033    0.0000 N   0  0  0  0  0  0  0  0  0  0  0  0
    3.1907    0.6888    0.0000 S   0  0  0  0  0  0  0  0  0  0  0  0
    4.8407    2.1178    0.0000 C   0  0  0  0  0  0  0  0  0  0  0  0
    5.6657    2.1178    0.0000 C   0  0  0  0  0  0  0  0  0  0  0  0
    4.4282    2.8322    0.0000 C   0  0  0  0  0  0  0  0  0  0  0  0
  1  2  4  0  0  0  0
  2  3  4  0  0  0  0
  3  4  4  0  0  0  0
  4  5  4  0  0  0  0
  5  1  4  0  0  0  0
  4  6  1  0  0  0  0
  6  7  4  0  0  0  0
  7  8  4  0  0  0  0
  8  9  4  0  0  0  0
  9 10  4  0  0  0  0
 10 11  4  0  0  0  0
 11  6  4  0  0  0  0
  9 12  1  0  0  0  0
  2 13  1  0  0  0  0
 13 14  4  0  0  0  0
 14 15  4  0  0  0  0
 15 16  4  0  0  0  0
 16 17  4  0  0  0  0
 17 18  4  0  0  0  0
 18 13  4  0  0  0  0
 16 19  1  0  0  0  0
 19 20  1  0  0  0  0
 20 21  1  0  0  0  0
 20 22  2  0  0  0  0
 18 23  1  0  0  0  0
 23 24  1  0  0  0  0
 23 25  2  0  0  0  0
 23 26  2  0  0  0  0
 24 27  1  0  0  0  0
 27 28  1  0  0  0  0
 28 29  1  0  0  0  0
 29 30  1  0  0  0  0
 12 31  1  0  0  0  0
 31 32  1  0  0  0  0
 31 33  2  0  0  0  0
 32 34  1  0  0  0  0
 34 35  1  0  0  0  0
 34 36  1  0  0  0  0
M  END
> <From>
www.bindingDB.org

> <BindingDB Reactant_set_id>
1155243

> <Ligand InChI>
InChI=1S/C24H29N5O4S3/c1-15(2)27-24(34)29-18-7-5-17(6-8-18)23-25-14-21(35-23)20-10-9-19(28-16(3)30)13-22(20)36(31,32)26-11-12-33-4/h5-10,13-15,26H,11-12H2,1-4H3,(H,28,30)(H2,27,29,34)

> <Ligand InChI Key>
YXXWJRKAAYYBGX-UHFFFAOYSA-N

> <BindingDB MonomerID>
546394

> <BindingDB Ligand Name>
US11291655, No D27

> <Target Name>
DNA repair protein RAD51 homolog 1

> <Target Source Organism According to Curator or DataSource>
Homo sapiens

> <Ki (nM)>


> <IC50 (nM)>


> <Kd (nM)>


> <EC50 (nM)>
>10000

> <kon (M-1-s-1)>


> <koff (s-1)>


> <pH>


> <Temp C>


> <Curation/DataSource>
US Patent

> <Article DOI>


> <BindingDB Entry DOI>
10.7270/Q2NG4TV0

> <PMID>


> <PubChem AID>
aid1806421

> <Patent Number>
US11291655

> <Authors>
Castro, AC; McComas, CC; Vacca, J

> <Date of publication>
4/5/2022

> <Date in BindingDB>
7/21/2022

> <Institution>
Cyteir Therapeutics, Inc.

> <Link to Ligand in BindingDB>
http://www.bindingdb.org/bind/chemsearch/marvin/MolStructure.jsp?monomerid=546394

> <Link to Ligand-Target Pair in BindingDB>
http://www.bindingdb.org/jsp/dbsearch/PrimarySearch_ki.jsp?energyterm=kJ/mole&tag=pol&polymerid=4676&target=DNA+repair+protein+RAD51+homolog+1&column=ki&startPg=0&Increment=50&submit=Search

> <Link to Ligand-Target Pair in BindingDB>
http://www.bindingdb.org/jsp/dbsearch/PrimarySearch_ki.jsp?energyterm=kJ/mole&tag=r21&monomerid=546394&enzyme=DNA+repair+protein+RAD51+homolog+1&column=ki&startPg=0&Increment=50&submit=Search

> <Ligand HET ID in PDB>


> <PDB ID(s) for Ligand-Target Complex>


> <PubChem CID of Ligand>
137412121

> <PubChem SID of Ligand>
469681090

> <ChEBI ID of Ligand>


> <ChEMBL ID of Ligand>


> <DrugBank ID of Ligand>


> <IUPHAR_GRAC ID of Ligand>


> <KEGG ID of Ligand>


> <ZINC ID of Ligand>


> <Number of Protein Chains in Target (bigger than 1 implies a multichain complex)>
1

> <BindingDB Target Chain Sequence>
MAMQMQLEANADTSVEEESFGPQPISRLEQCGINANDVKKLEEAGFHTVEAVAYAPKKELINIKGISEAKADKILAEAAKLVPMGFTTATEFHQRRSEIIQITTGSKELDKLLQGGIETGSITEMFGEFRTGKTQICHTLAVTCQLPIDRGGGEGKAMYIDTEGTFRPERLLAVAERYGLSGSDVLDNVAYARAFNTDHQTQLLYQASAMMVESRYALLIVDSATALYRTDYSGRGELSARQMHLARFLRMLLRLADEFGVAVVITNQVVAQVDGAAMFAADPKKPIGGNIIAHASTTRLYLRKGRGETRICKIYDSPCLPEAEAMFAINADGVGDAKD

> <PDB ID(s) of Target Chain>
1N0W,5JZC,5NP7,5NWL,8BQ2,8BR2,8BSC

> <UniProt (SwissProt) Recommended Name of Target Chain>
DNA repair protein RAD51 homolog 1

> <UniProt (SwissProt) Entry Name of Target Chain>
RAD51_HUMAN

> <UniProt (SwissProt) Primary ID of Target Chain>
Q06609

> <UniProt (SwissProt) Secondary ID(s) of Target Chain>
B0FXP0 B2R8T6 Q6FHX9 Q6ZNA8 Q9BV60

> <UniProt (SwissProt) Alternative ID(s) of Target Chain>


> <UniProt (TrEMBL) Submitted Name of Target Chain>


> <UniProt (TrEMBL) Entry Name of Target Chain>


> <UniProt (TrEMBL) Primary ID of Target Chain>


> <UniProt (TrEMBL) Secondary ID(s) of Target Chain>


> <UniProt (TrEMBL) Alternative ID(s) of Target Chain>


$$$$
00254001.cdx
  Mrv0541 07212217012D          

 35 37  0  0  0  0            999 V2000
   -1.3789    2.3240    0.0000 C   0  0  0  0  0  0  0  0  0  0  0  0
   -1.3789    1.4990    0.0000 C   0  0  0  0  0  0  0  0  0  0  0  0
   -0.5942    1.2441    0.0000 S   0  0  0  0  0  0  0  0  0  0  0  0
   -0.1093    1.9115    0.0000 C   0  0  0  0  0  0  0  0  0  0  0  0
   -0.5942    2.5790    0.0000 N   0  0  0  0  0  0  0  0  0  0  0  0
    0.7157    1.9115    0.0000 C   0  0  0  0  0  0  0  0  0  0  0  0
    1.1282    1.1970    0.0000 C   0  0  0  0  0  0  0  0  0  0  0  0
    1.9532    1.1970    0.0000 C   0  0  0  0  0  0  0  0  0  0  0  0
    2.3657    1.9115    0.0000 C   0  0  0  0  0  0  0  0  0  0  0  0
    1.9532    2.6260    0.0000 C   0  0  0  0  0  0  0  0  0  0  0  0
    1.1282    2.6260    0.0000 C   0  0  0  0  0  0  0  0  0  0  0  0
    3.1907    1.9115    0.0000 N   0  0  0  0  0  0  0  0  0  0  0  0
   -2.0933    1.0865    0.0000 C   0  0  0  0  0  0  0  0  0  0  0  0
   -2.8078    1.4990    0.0000 C   0  0  0  0  0  0  0  0  0  0  0  0
   -3.5223    1.0865    0.0000 C   0  0  0  0  0  0  0  0  0  0  0  0
   -3.5223    0.2615    0.0000 C   0  0  0  0  0  0  0  0  0  0  0  0
   -2.8078   -0.1510    0.0000 C   0  0  0  0  0  0  0  0  0  0  0  0
   -2.0933    0.2615    0.0000 C   0  0  0  0  0  0  0  0  0  0  0  0
   -4.2367   -0.1510    0.0000 N   0  0  0  0  0  0  0  0  0  0  0  0
   -4.9512    0.2615    0.0000 C   0  0  0  0  0  0  0  0  0  0  0  0
   -5.6657   -0.1510    0.0000 C   0  0  0  0  0  0  0  0  0  0  0  0
   -4.9512    1.0865    0.0000 O   0  0  0  0  0  0  0  0  0  0  0  0
   -1.3789   -0.1510    0.0000 S   0  0  0  0  0  0  0  0  0  0  0  0
   -0.6644   -0.5635    0.0000 N   0  0  0  0  0  0  0  0  0  0  0  0
   -0.9664    0.5635    0.0000 O   0  0  0  0  0  0  0  0  0  0  0  0
   -1.7914   -0.8655    0.0000 O   0  0  0  0  0  0  0  0  0  0  0  0
   -0.6644   -1.3885    0.0000 C   0  0  0  0  0  0  0  0  0  0  0  0
    0.0501   -1.8010    0.0000 C   0  0  0  0  0  0  0  0  0  0  0  0
    0.0501   -2.6260    0.0000 O   0  0  0  0  0  0  0  0  0  0  0  0
    3.6032    1.1970    0.0000 C   0  0  0  0  0  0  0  0  0  0  0  0
    4.4282    1.1970    0.0000 N   0  0  0  0  0  0  0  0  0  0  0  0
    3.1907    0.4826    0.0000 S   0  0  0  0  0  0  0  0  0  0  0  0
    4.8407    1.9115    0.0000 C   0  0  0  0  0  0  0  0  0  0  0  0
    5.6657    1.9115    0.0000 C   0  0  0  0  0  0  0  0  0  0  0  0
    4.4282    2.6260    0.0000 C   0  0  0  0  0  0  0  0  0  0  0  0
  1  2  4  0  0  0  0
  2  3  4  0  0  0  0
  3  4  4  0  0  0  0
  4  5  4  0  0  0  0
  5  1  4  0  0  0  0
  4  6  1  0  0  0  0
  6  7  4  0  0  0  0
  7  8  4  0  0  0  0
  8  9  4  0  0  0  0
  9 10  4  0  0  0  0
 10 11  4  0  0  0  0
 11  6  4  0  0  0  0
  9 12  1  0  0  0  0
  2 13  1  0  0  0  0
 13 14  4  0  0  0  0
 14 15  4  0  0  0  0
 15 16  4  0  0  0  0
 16 17  4  0  0  0  0
 17 18  4  0  0  0  0
 18 13  4  0  0  0  0
 16 19  1  0  0  0  0
 19 20  1  0  0  0  0
 20 21  1  0  0  0  0
 20 22  2  0  0  0  0
 18 23  1  0  0  0  0
 23 24  1  0  0  0  0
 23 25  2  0  0  0  0
 23 26  2  0  0  0  0
 24 27  1  0  0  0  0
 27 28  1  0  0  0  0
 28 29  1  0  0  0  0
 12 30  1  0  0  0  0
 30 31  1  0  0  0  0
 30 32  2  0  0  0  0
 31 33  1  0  0  0  0
 33 34  1  0  0  0  0
 33 35  1  0  0  0  0
M  END
> <From>
www.bindingDB.org

> <BindingDB Reactant_set_id>
1155244

> <Ligand InChI>
InChI=1S/C23H27N5O4S3/c1-14(2)26-23(33)28-17-6-4-16(5-7-17)22-24-13-20(34-22)19-9-8-18(27-15(3)30)12-21(19)35(31,32)25-10-11-29/h4-9,12-14,25,29H,10-11H2,1-3H3,(H,27,30)(H2,26,28,33)

> <Ligand InChI Key>
FWRPYEIPTZGZMX-UHFFFAOYSA-N

> <BindingDB MonomerID>
546395

> <BindingDB Ligand Name>
US11291655, No D28

> <Target Name>
DNA repair protein RAD51 homolog 1

> <Target Source Organism According to Curator or DataSource>
Homo sapiens

> <Ki (nM)>


> <IC50 (nM)>


> <Kd (nM)>


> <EC50 (nM)>
>10000

> <kon (M-1-s-1)>


> <koff (s-1)>


> <pH>


> <Temp C>


> <Curation/DataSource>
US Patent

> <Article DOI>


> <BindingDB Entry DOI>
10.7270/Q2NG4TV0

> <PMID>


> <PubChem AID>
aid1806421

> <Patent Number>
US11291655

> <Authors>
Castro, AC; McComas, CC; Vacca, J

> <Date of publication>
4/5/2022

> <Date in BindingDB>
7/21/2022

> <Institution>
Cyteir Therapeutics, Inc.

> <Link to Ligand in BindingDB>
http://www.bindingdb.org/bind/chemsearch/marvin/MolStructure.jsp?monomerid=546395

> <Link to Ligand-Target Pair in BindingDB>
http://www.bindingdb.org/jsp/dbsearch/PrimarySearch_ki.jsp?energyterm=kJ/mole&tag=pol&polymerid=4676&target=DNA+repair+protein+RAD51+homolog+1&column=ki&startPg=0&Increment=50&submit=Search

> <Link to Ligand-Target Pair in BindingDB>
http://www.bindingdb.org/jsp/dbsearch/PrimarySearch_ki.jsp?energyterm=kJ/mole&tag=r21&monomerid=546395&enzyme=DNA+repair+protein+RAD51+homolog+1&column=ki&startPg=0&Increment=50&submit=Search

> <Ligand HET ID in PDB>


> <PDB ID(s) for Ligand-Target Complex>


> <PubChem CID of Ligand>
137412014

> <PubChem SID of Ligand>
469681091

> <ChEBI ID of Ligand>


> <ChEMBL ID of Ligand>


> <DrugBank ID of Ligand>


> <IUPHAR_GRAC ID of Ligand>


> <KEGG ID of Ligand>


> <ZINC ID of Ligand>


> <Number of Protein Chains in Target (bigger than 1 implies a multichain complex)>
1

> <BindingDB Target Chain Sequence>
MAMQMQLEANADTSVEEESFGPQPISRLEQCGINANDVKKLEEAGFHTVEAVAYAPKKELINIKGISEAKADKILAEAAKLVPMGFTTATEFHQRRSEIIQITTGSKELDKLLQGGIETGSITEMFGEFRTGKTQICHTLAVTCQLPIDRGGGEGKAMYIDTEGTFRPERLLAVAERYGLSGSDVLDNVAYARAFNTDHQTQLLYQASAMMVESRYALLIVDSATALYRTDYSGRGELSARQMHLARFLRMLLRLADEFGVAVVITNQVVAQVDGAAMFAADPKKPIGGNIIAHASTTRLYLRKGRGETRICKIYDSPCLPEAEAMFAINADGVGDAKD

> <PDB ID(s) of Target Chain>
1N0W,5JZC,5NP7,5NWL,8BQ2,8BR2,8BSC

> <UniProt (SwissProt) Recommended Name of Target Chain>
DNA repair protein RAD51 homolog 1

> <UniProt (SwissProt) Entry Name of Target Chain>
RAD51_HUMAN

> <UniProt (SwissProt) Primary ID of Target Chain>
Q06609

> <UniProt (SwissProt) Secondary ID(s) of Target Chain>
B0FXP0 B2R8T6 Q6FHX9 Q6ZNA8 Q9BV60

> <UniProt (SwissProt) Alternative ID(s) of Target Chain>


> <UniProt (TrEMBL) Submitted Name of Target Chain>


> <UniProt (TrEMBL) Entry Name of Target Chain>


> <UniProt (TrEMBL) Primary ID of Target Chain>


> <UniProt (TrEMBL) Secondary ID(s) of Target Chain>


> <UniProt (TrEMBL) Alternative ID(s) of Target Chain>


$$$$
00255001.cdx
  Mrv0541 07212217012D          

 36 38  0  0  0  0            999 V2000
   -1.3789    2.5303    0.0000 C   0  0  0  0  0  0  0  0  0  0  0  0
   -1.3789    1.7053    0.0000 C   0  0  0  0  0  0  0  0  0  0  0  0
   -0.5942    1.4503    0.0000 S   0  0  0  0  0  0  0  0  0  0  0  0
   -0.1093    2.1178    0.0000 C   0  0  0  0  0  0  0  0  0  0  0  0
   -0.5942    2.7852    0.0000 N   0  0  0  0  0  0  0  0  0  0  0  0
    0.7157    2.1178    0.0000 C   0  0  0  0  0  0  0  0  0  0  0  0
    1.1282    1.4033    0.0000 C   0  0  0  0  0  0  0  0  0  0  0  0
    1.9532    1.4033    0.0000 C   0  0  0  0  0  0  0  0  0  0  0  0
    2.3657    2.1178    0.0000 C   0  0  0  0  0  0  0  0  0  0  0  0
    1.9532    2.8322    0.0000 C   0  0  0  0  0  0  0  0  0  0  0  0
    1.1282    2.8322    0.0000 C   0  0  0  0  0  0  0  0  0  0  0  0
    3.1907    2.1178    0.0000 N   0  0  0  0  0  0  0  0  0  0  0  0
   -2.0933    1.2928    0.0000 C   0  0  0  0  0  0  0  0  0  0  0  0
   -2.8078    1.7053    0.0000 C   0  0  0  0  0  0  0  0  0  0  0  0
   -3.5223    1.2928    0.0000 C   0  0  0  0  0  0  0  0  0  0  0  0
   -3.5223    0.4678    0.0000 C   0  0  0  0  0  0  0  0  0  0  0  0
   -2.8078    0.0553    0.0000 C   0  0  0  0  0  0  0  0  0  0  0  0
   -2.0933    0.4678    0.0000 C   0  0  0  0  0  0  0  0  0  0  0  0
   -4.2367    0.0553    0.0000 N   0  0  0  0  0  0  0  0  0  0  0  0
   -4.9512    0.4678    0.0000 C   0  0  0  0  0  0  0  0  0  0  0  0
   -5.6657    0.0553    0.0000 C   0  0  0  0  0  0  0  0  0  0  0  0
   -4.9512    1.2928    0.0000 O   0  0  0  0  0  0  0  0  0  0  0  0
   -1.3789    0.0553    0.0000 S   0  0  0  0  0  0  0  0  0  0  0  0
   -0.6644   -0.3572    0.0000 N   0  0  0  0  0  0  0  0  0  0  0  0
   -0.9664    0.7697    0.0000 O   0  0  0  0  0  0  0  0  0  0  0  0
   -1.7914   -0.6592    0.0000 O   0  0  0  0  0  0  0  0  0  0  0  0
   -0.6644   -1.1822    0.0000 C   0  0  0  0  0  0  0  0  0  0  0  0
    0.0501   -1.5947    0.0000 C   0  0  0  0  0  0  0  0  0  0  0  0
    0.0501   -2.4197    0.0000 N   0  0  0  0  0  0  0  0  0  0  0  0
    3.6032    1.4033    0.0000 C   0  0  0  0  0  0  0  0  0  0  0  0
    4.4282    1.4033    0.0000 N   0  0  0  0  0  0  0  0  0  0  0  0
    3.1907    0.6888    0.0000 S   0  0  0  0  0  0  0  0  0  0  0  0
    4.8407    2.1178    0.0000 C   0  0  0  0  0  0  0  0  0  0  0  0
    5.6657    2.1178    0.0000 C   0  0  0  0  0  0  0  0  0  0  0  0
    4.4282    2.8322    0.0000 C   0  0  0  0  0  0  0  0  0  0  0  0
    0.7646   -2.8322    0.0000 C   0  0  0  0  0  0  0  0  0  0  0  0
  1  2  4  0  0  0  0
  2  3  4  0  0  0  0
  3  4  4  0  0  0  0
  4  5  4  0  0  0  0
  5  1  4  0  0  0  0
  4  6  1  0  0  0  0
  6  7  4  0  0  0  0
  7  8  4  0  0  0  0
  8  9  4  0  0  0  0
  9 10  4  0  0  0  0
 10 11  4  0  0  0  0
 11  6  4  0  0  0  0
  9 12  1  0  0  0  0
  2 13  1  0  0  0  0
 13 14  4  0  0  0  0
 14 15  4  0  0  0  0
 15 16  4  0  0  0  0
 16 17  4  0  0  0  0
 17 18  4  0  0  0  0
 18 13  4  0  0  0  0
 16 19  1  0  0  0  0
 19 20  1  0  0  0  0
 20 21  1  0  0  0  0
 20 22  2  0  0  0  0
 18 23  1  0  0  0  0
 23 24  1  0  0  0  0
 23 25  2  0  0  0  0
 23 26  2  0  0  0  0
 24 27  1  0  0  0  0
 27 28  1  0  0  0  0
 28 29  1  0  0  0  0
 12 30  1  0  0  0  0
 30 31  1  0  0  0  0
 30 32  2  0  0  0  0
 31 33  1  0  0  0  0
 33 34  1  0  0  0  0
 33 35  1  0  0  0  0
 29 36  1  0  0  0  0
M  END
> <From>
www.bindingDB.org

> <BindingDB Reactant_set_id>
1155245

> <Ligand InChI>
InChI=1S/C24H30N6O3S3/c1-15(2)28-24(34)30-18-7-5-17(6-8-18)23-26-14-21(35-23)20-10-9-19(29-16(3)31)13-22(20)36(32,33)27-12-11-25-4/h5-10,13-15,25,27H,11-12H2,1-4H3,(H,29,31)(H2,28,30,34)

> <Ligand InChI Key>
AGJRFMZSKXGCPM-UHFFFAOYSA-N

> <BindingDB MonomerID>
546396

> <BindingDB Ligand Name>
US11291655, No D29

> <Target Name>
DNA repair protein RAD51 homolog 1

> <Target Source Organism According to Curator or DataSource>
Homo sapiens

> <Ki (nM)>


> <IC50 (nM)>


> <Kd (nM)>


> <EC50 (nM)>
>10000

> <kon (M-1-s-1)>


> <koff (s-1)>


> <pH>


> <Temp C>


> <Curation/DataSource>
US Patent

> <Article DOI>


> <BindingDB Entry DOI>
10.7270/Q2NG4TV0

> <PMID>


> <PubChem AID>
aid1806421

> <Patent Number>
US11291655

> <Authors>
Castro, AC; McComas, CC; Vacca, J

> <Date of publication>
4/5/2022

> <Date in BindingDB>
7/21/2022

> <Institution>
Cyteir Therapeutics, Inc.

> <Link to Ligand in BindingDB>
http://www.bindingdb.org/bind/chemsearch/marvin/MolStructure.jsp?monomerid=546396

> <Link to Ligand-Target Pair in BindingDB>
http://www.bindingdb.org/jsp/dbsearch/PrimarySearch_ki.jsp?energyterm=kJ/mole&tag=pol&polymerid=4676&target=DNA+repair+protein+RAD51+homolog+1&column=ki&startPg=0&Increment=50&submit=Search

> <Link to Ligand-Target Pair in BindingDB>
http://www.bindingdb.org/jsp/dbsearch/PrimarySearch_ki.jsp?energyterm=kJ/mole&tag=r21&monomerid=546396&enzyme=DNA+repair+protein+RAD51+homolog+1&column=ki&startPg=0&Increment=50&submit=Search

> <Ligand HET ID in PDB>


> <PDB ID(s) for Ligand-Target Complex>


> <PubChem CID of Ligand>
137412011

> <PubChem SID of Ligand>
469681092

> <ChEBI ID of Ligand>


> <ChEMBL ID of Ligand>


> <DrugBank ID of Ligand>


> <IUPHAR_GRAC ID of Ligand>


> <KEGG ID of Ligand>


> <ZINC ID of Ligand>


> <Number of Protein Chains in Target (bigger than 1 implies a multichain complex)>
1

> <BindingDB Target Chain Sequence>
MAMQMQLEANADTSVEEESFGPQPISRLEQCGINANDVKKLEEAGFHTVEAVAYAPKKELINIKGISEAKADKILAEAAKLVPMGFTTATEFHQRRSEIIQITTGSKELDKLLQGGIETGSITEMFGEFRTGKTQICHTLAVTCQLPIDRGGGEGKAMYIDTEGTFRPERLLAVAERYGLSGSDVLDNVAYARAFNTDHQTQLLYQASAMMVESRYALLIVDSATALYRTDYSGRGELSARQMHLARFLRMLLRLADEFGVAVVITNQVVAQVDGAAMFAADPKKPIGGNIIAHASTTRLYLRKGRGETRICKIYDSPCLPEAEAMFAINADGVGDAKD

> <PDB ID(s) of Target Chain>
1N0W,5JZC,5NP7,5NWL,8BQ2,8BR2,8BSC

> <UniProt (SwissProt) Recommended Name of Target Chain>
DNA repair protein RAD51 homolog 1

> <UniProt (SwissProt) Entry Name of Target Chain>
RAD51_HUMAN

> <UniProt (SwissProt) Primary ID of Target Chain>
Q06609

> <UniProt (SwissProt) Secondary ID(s) of Target Chain>
B0FXP0 B2R8T6 Q6FHX9 Q6ZNA8 Q9BV60

> <UniProt (SwissProt) Alternative ID(s) of Target Chain>


> <UniProt (TrEMBL) Submitted Name of Target Chain>


> <UniProt (TrEMBL) Entry Name of Target Chain>


> <UniProt (TrEMBL) Primary ID of Target Chain>


> <UniProt (TrEMBL) Secondary ID(s) of Target Chain>


> <UniProt (TrEMBL) Alternative ID(s) of Target Chain>


$$$$
00256001.cdx
  Mrv0541 07212217012D          

 39 42  0  0  0  0            999 V2000
   -1.3789    2.5303    0.0000 C   0  0  0  0  0  0  0  0  0  0  0  0
   -1.3789    1.7053    0.0000 C   0  0  0  0  0  0  0  0  0  0  0  0
   -0.5942    1.4503    0.0000 S   0  0  0  0  0  0  0  0  0  0  0  0
   -0.1093    2.1178    0.0000 C   0  0  0  0  0  0  0  0  0  0  0  0
   -0.5942    2.7852    0.0000 N   0  0  0  0  0  0  0  0  0  0  0  0
    0.7157    2.1178    0.0000 C   0  0  0  0  0  0  0  0  0  0  0  0
    1.1282    1.4033    0.0000 C   0  0  0  0  0  0  0  0  0  0  0  0
    1.9532    1.4033    0.0000 C   0  0  0  0  0  0  0  0  0  0  0  0
    2.3657    2.1178    0.0000 C   0  0  0  0  0  0  0  0  0  0  0  0
    1.9532    2.8322    0.0000 C   0  0  0  0  0  0  0  0  0  0  0  0
    1.1282    2.8322    0.0000 C   0  0  0  0  0  0  0  0  0  0  0  0
    3.1907    2.1178    0.0000 N   0  0  0  0  0  0  0  0  0  0  0  0
   -2.0933    1.2928    0.0000 C   0  0  0  0  0  0  0  0  0  0  0  0
   -2.8078    1.7053    0.0000 C   0  0  0  0  0  0  0  0  0  0  0  0
   -3.5223    1.2928    0.0000 C   0  0  0  0  0  0  0  0  0  0  0  0
   -3.5223    0.4678    0.0000 C   0  0  0  0  0  0  0  0  0  0  0  0
   -2.8078    0.0553    0.0000 C   0  0  0  0  0  0  0  0  0  0  0  0
   -2.0933    0.4678    0.0000 C   0  0  0  0  0  0  0  0  0  0  0  0
   -4.2367    0.0553    0.0000 N   0  0  0  0  0  0  0  0  0  0  0  0
   -4.9512    0.4678    0.0000 C   0  0  0  0  0  0  0  0  0  0  0  0
   -5.6657    0.0553    0.0000 C   0  0  0  0  0  0  0  0  0  0  0  0
   -4.9512    1.2928    0.0000 O   0  0  0  0  0  0  0  0  0  0  0  0
   -1.3789    0.0553    0.0000 S   0  0  0  0  0  0  0  0  0  0  0  0
   -0.6644   -0.3572    0.0000 N   0  0  0  0  0  0  0  0  0  0  0  0
   -0.9664    0.7697    0.0000 O   0  0  0  0  0  0  0  0  0  0  0  0
   -1.7914   -0.6592    0.0000 O   0  0  0  0  0  0  0  0  0  0  0  0
   -0.6644   -1.1822    0.0000 C   0  0  0  0  0  0  0  0  0  0  0  0
    0.0501   -1.5947    0.0000 C   0  0  0  0  0  0  0  0  0  0  0  0
    3.6032    1.4033    0.0000 C   0  0  0  0  0  0  0  0  0  0  0  0
    4.4282    1.4033    0.0000 N   0  0  0  0  0  0  0  0  0  0  0  0
    3.1907    0.6888    0.0000 S   0  0  0  0  0  0  0  0  0  0  0  0
    4.8407    2.1178    0.0000 C   0  0  0  0  0  0  0  0  0  0  0  0
    5.6657    2.1178    0.0000 C   0  0  0  0  0  0  0  0  0  0  0  0
    4.4282    2.8322    0.0000 C   0  0  0  0  0  0  0  0  0  0  0  0
    0.0501   -2.4197    0.0000 C   0  0  0  0  0  0  0  0  0  0  0  0
    0.7646   -2.8322    0.0000 C   0  0  0  0  0  0  0  0  0  0  0  0
    1.4790   -2.4197    0.0000 C   0  0  0  0  0  0  0  0  0  0  0  0
    1.4790   -1.5947    0.0000 C   0  0  0  0  0  0  0  0  0  0  0  0
    0.7646   -1.1822    0.0000 N   0  0  0  0  0  0  0  0  0  0  0  0
  1  2  4  0  0  0  0
  2  3  4  0  0  0  0
  3  4  4  0  0  0  0
  4  5  4  0  0  0  0
  5  1  4  0  0  0  0
  4  6  1  0  0  0  0
  6  7  4  0  0  0  0
  7  8  4  0  0  0  0
  8  9  4  0  0  0  0
  9 10  4  0  0  0  0
 10 11  4  0  0  0  0
 11  6  4  0  0  0  0
  9 12  1  0  0  0  0
  2 13  1  0  0  0  0
 13 14  4  0  0  0  0
 14 15  4  0  0  0  0
 15 16  4  0  0  0  0
 16 17  4  0  0  0  0
 17 18  4  0  0  0  0
 18 13  4  0  0  0  0
 16 19  1  0  0  0  0
 19 20  1  0  0  0  0
 20 21  1  0  0  0  0
 20 22  2  0  0  0  0
 18 23  1  0  0  0  0
 23 24  1  0  0  0  0
 23 25  2  0  0  0  0
 23 26  2  0  0  0  0
 24 27  1  0  0  0  0
 27 28  1  0  0  0  0
 12 29  1  0  0  0  0
 29 30  1  0  0  0  0
 29 31  2  0  0  0  0
 30 32  1  0  0  0  0
 32 33  1  0  0  0  0
 32 34  1  0  0  0  0
 28 35  4  0  0  0  0
 35 36  4  0  0  0  0
 36 37  4  0  0  0  0
 37 38  4  0  0  0  0
 38 39  4  0  0  0  0
 39 28  4  0  0  0  0
M  END
> <From>
www.bindingDB.org

> <BindingDB Reactant_set_id>
1155246

> <Ligand InChI>
InChI=1S/C27H28N6O3S3/c1-17(2)31-27(37)33-20-9-7-19(8-10-20)26-29-16-24(38-26)23-12-11-21(32-18(3)34)14-25(23)39(35,36)30-15-22-6-4-5-13-28-22/h4-14,16-17,30H,15H2,1-3H3,(H,32,34)(H2,31,33,37)

> <Ligand InChI Key>
DPKKYQLTGIMZPB-UHFFFAOYSA-N

> <BindingDB MonomerID>
546397

> <BindingDB Ligand Name>
US11291655, No D3

> <Target Name>
DNA repair protein RAD51 homolog 1

> <Target Source Organism According to Curator or DataSource>
Homo sapiens

> <Ki (nM)>


> <IC50 (nM)>


> <Kd (nM)>


> <EC50 (nM)>
>10000

> <kon (M-1-s-1)>


> <koff (s-1)>


> <pH>


> <Temp C>


> <Curation/DataSource>
US Patent

> <Article DOI>


> <BindingDB Entry DOI>
10.7270/Q2NG4TV0

> <PMID>


> <PubChem AID>
aid1806421

> <Patent Number>
US11291655

> <Authors>
Castro, AC; McComas, CC; Vacca, J

> <Date of publication>
4/5/2022

> <Date in BindingDB>
7/21/2022

> <Institution>
Cyteir Therapeutics, Inc.

> <Link to Ligand in BindingDB>
http://www.bindingdb.org/bind/chemsearch/marvin/MolStructure.jsp?monomerid=546397

> <Link to Ligand-Target Pair in BindingDB>
http://www.bindingdb.org/jsp/dbsearch/PrimarySearch_ki.jsp?energyterm=kJ/mole&tag=pol&polymerid=4676&target=DNA+repair+protein+RAD51+homolog+1&column=ki&startPg=0&Increment=50&submit=Search

> <Link to Ligand-Target Pair in BindingDB>
http://www.bindingdb.org/jsp/dbsearch/PrimarySearch_ki.jsp?energyterm=kJ/mole&tag=r21&monomerid=546397&enzyme=DNA+repair+protein+RAD51+homolog+1&column=ki&startPg=0&Increment=50&submit=Search

> <Ligand HET ID in PDB>


> <PDB ID(s) for Ligand-Target Complex>


> <PubChem CID of Ligand>
137412015

> <PubChem SID of Ligand>
469681093

> <ChEBI ID of Ligand>


> <ChEMBL ID of Ligand>


> <DrugBank ID of Ligand>


> <IUPHAR_GRAC ID of Ligand>


> <KEGG ID of Ligand>


> <ZINC ID of Ligand>


> <Number of Protein Chains in Target (bigger than 1 implies a multichain complex)>
1

> <BindingDB Target Chain Sequence>
MAMQMQLEANADTSVEEESFGPQPISRLEQCGINANDVKKLEEAGFHTVEAVAYAPKKELINIKGISEAKADKILAEAAKLVPMGFTTATEFHQRRSEIIQITTGSKELDKLLQGGIETGSITEMFGEFRTGKTQICHTLAVTCQLPIDRGGGEGKAMYIDTEGTFRPERLLAVAERYGLSGSDVLDNVAYARAFNTDHQTQLLYQASAMMVESRYALLIVDSATALYRTDYSGRGELSARQMHLARFLRMLLRLADEFGVAVVITNQVVAQVDGAAMFAADPKKPIGGNIIAHASTTRLYLRKGRGETRICKIYDSPCLPEAEAMFAINADGVGDAKD

> <PDB ID(s) of Target Chain>
1N0W,5JZC,5NP7,5NWL,8BQ2,8BR2,8BSC

> <UniProt (SwissProt) Recommended Name of Target Chain>
DNA repair protein RAD51 homolog 1

> <UniProt (SwissProt) Entry Name of Target Chain>
RAD51_HUMAN

> <UniProt (SwissProt) Primary ID of Target Chain>
Q06609

> <UniProt (SwissProt) Secondary ID(s) of Target Chain>
B0FXP0 B2R8T6 Q6FHX9 Q6ZNA8 Q9BV60

> <UniProt (SwissProt) Alternative ID(s) of Target Chain>


> <UniProt (TrEMBL) Submitted Name of Target Chain>


> <UniProt (TrEMBL) Entry Name of Target Chain>


> <UniProt (TrEMBL) Primary ID of Target Chain>


> <UniProt (TrEMBL) Secondary ID(s) of Target Chain>


> <UniProt (TrEMBL) Alternative ID(s) of Target Chain>


$$$$
00257001.cdx
  Mrv0541 07212217012D          

 36 38  0  0  0  0            999 V2000
   -1.3789    1.4437    0.0000 C   0  0  0  0  0  0  0  0  0  0  0  0
   -1.3789    0.6187    0.0000 C   0  0  0  0  0  0  0  0  0  0  0  0
   -0.5942    0.3638    0.0000 S   0  0  0  0  0  0  0  0  0  0  0  0
   -0.1093    1.0312    0.0000 C   0  0  0  0  0  0  0  0  0  0  0  0
   -0.5942    1.6987    0.0000 N   0  0  0  0  0  0  0  0  0  0  0  0
    0.7157    1.0312    0.0000 C   0  0  0  0  0  0  0  0  0  0  0  0
    1.1282    0.3168    0.0000 C   0  0  0  0  0  0  0  0  0  0  0  0
    1.9532    0.3168    0.0000 C   0  0  0  0  0  0  0  0  0  0  0  0
    2.3657    1.0312    0.0000 C   0  0  0  0  0  0  0  0  0  0  0  0
    1.9532    1.7457    0.0000 C   0  0  0  0  0  0  0  0  0  0  0  0
    1.1282    1.7457    0.0000 C   0  0  0  0  0  0  0  0  0  0  0  0
    3.1907    1.0312    0.0000 N   0  0  0  0  0  0  0  0  0  0  0  0
   -2.0933    0.2062    0.0000 C   0  0  0  0  0  0  0  0  0  0  0  0
   -2.8078    0.6187    0.0000 C   0  0  0  0  0  0  0  0  0  0  0  0
   -3.5223    0.2062    0.0000 C   0  0  0  0  0  0  0  0  0  0  0  0
   -3.5223   -0.6188    0.0000 C   0  0  0  0  0  0  0  0  0  0  0  0
   -2.8078   -1.0313    0.0000 C   0  0  0  0  0  0  0  0  0  0  0  0
   -2.0933   -0.6188    0.0000 C   0  0  0  0  0  0  0  0  0  0  0  0
   -4.2367   -1.0313    0.0000 N   0  0  0  0  0  0  0  0  0  0  0  0
   -4.9512   -0.6188    0.0000 C   0  0  0  0  0  0  0  0  0  0  0  0
   -5.6657   -1.0313    0.0000 C   0  0  0  0  0  0  0  0  0  0  0  0
   -4.9512    0.2062    0.0000 O   0  0  0  0  0  0  0  0  0  0  0  0
   -1.3789   -1.0313    0.0000 S   0  0  0  0  0  0  0  0  0  0  0  0
   -0.6644   -1.4438    0.0000 N   0  0  0  0  0  0  0  0  0  0  0  0
   -0.9664   -0.3168    0.0000 O   0  0  0  0  0  0  0  0  0  0  0  0
   -1.7914   -1.7457    0.0000 O   0  0  0  0  0  0  0  0  0  0  0  0
    3.6032    0.3168    0.0000 C   0  0  0  0  0  0  0  0  0  0  0  0
    4.4282    0.3168    0.0000 N   0  0  0  0  0  0  0  0  0  0  0  0
    3.1907   -0.3977    0.0000 S   0  0  0  0  0  0  0  0  0  0  0  0
    4.8407    1.0312    0.0000 C   0  0  0  0  0  0  0  0  0  0  0  0
    5.6657    1.0312    0.0000 C   0  0  0  0  0  0  0  0  0  0  0  0
    4.4282    1.7457    0.0000 C   0  0  0  0  0  0  0  0  0  0  0  0
    0.0501   -1.0313    0.0000 C   0  0  0  0  0  0  0  0  0  0  0  0
    0.7646   -1.4438    0.0000 C   0  0  0  0  0  0  0  0  0  0  0  0
    0.0501   -0.2063    0.0000 C   0  0  0  0  0  0  0  0  0  0  0  0
    0.7646   -0.6188    0.0000 C   0  0  0  0  0  0  0  0  0  0  0  0
  1  2  4  0  0  0  0
  2  3  4  0  0  0  0
  3  4  4  0  0  0  0
  4  5  4  0  0  0  0
  5  1  4  0  0  0  0
  4  6  1  0  0  0  0
  6  7  4  0  0  0  0
  7  8  4  0  0  0  0
  8  9  4  0  0  0  0
  9 10  4  0  0  0  0
 10 11  4  0  0  0  0
 11  6  4  0  0  0  0
  9 12  1  0  0  0  0
  2 13  1  0  0  0  0
 13 14  4  0  0  0  0
 14 15  4  0  0  0  0
 15 16  4  0  0  0  0
 16 17  4  0  0  0  0
 17 18  4  0  0  0  0
 18 13  4  0  0  0  0
 16 19  1  0  0  0  0
 19 20  1  0  0  0  0
 20 21  1  0  0  0  0
 20 22  2  0  0  0  0
 18 23  1  0  0  0  0
 23 24  1  0  0  0  0
 23 25  2  0  0  0  0
 23 26  2  0  0  0  0
 12 27  1  0  0  0  0
 27 28  1  0  0  0  0
 27 29  2  0  0  0  0
 28 30  1  0  0  0  0
 30 31  1  0  0  0  0
 30 32  1  0  0  0  0
 24 33  1  0  0  0  0
 33 34  1  0  0  0  0
 33 35  1  0  0  0  0
 33 36  1  0  0  0  0
M  END
> <From>
www.bindingDB.org

> <BindingDB Reactant_set_id>
1155247

> <Ligand InChI>
InChI=1S/C25H31N5O3S3/c1-15(2)27-24(34)29-18-9-7-17(8-10-18)23-26-14-21(35-23)20-12-11-19(28-16(3)31)13-22(20)36(32,33)30-25(4,5)6/h7-15,30H,1-6H3,(H,28,31)(H2,27,29,34)

> <Ligand InChI Key>
LJIYHDLZUNAWSW-UHFFFAOYSA-N

> <BindingDB MonomerID>
546398

> <BindingDB Ligand Name>
US11291655, No D30

> <Target Name>
DNA repair protein RAD51 homolog 1

> <Target Source Organism According to Curator or DataSource>
Homo sapiens

> <Ki (nM)>


> <IC50 (nM)>


> <Kd (nM)>


> <EC50 (nM)>
<5000

> <kon (M-1-s-1)>


> <koff (s-1)>


> <pH>


> <Temp C>


> <Curation/DataSource>
US Patent

> <Article DOI>


> <BindingDB Entry DOI>
10.7270/Q2NG4TV0

> <PMID>


> <PubChem AID>
aid1806421

> <Patent Number>
US11291655

> <Authors>
Castro, AC; McComas, CC; Vacca, J

> <Date of publication>
4/5/2022

> <Date in BindingDB>
7/21/2022

> <Institution>
Cyteir Therapeutics, Inc.

> <Link to Ligand in BindingDB>
http://www.bindingdb.org/bind/chemsearch/marvin/MolStructure.jsp?monomerid=546398

> <Link to Ligand-Target Pair in BindingDB>
http://www.bindingdb.org/jsp/dbsearch/PrimarySearch_ki.jsp?energyterm=kJ/mole&tag=pol&polymerid=4676&target=DNA+repair+protein+RAD51+homolog+1&column=ki&startPg=0&Increment=50&submit=Search

> <Link to Ligand-Target Pair in BindingDB>
http://www.bindingdb.org/jsp/dbsearch/PrimarySearch_ki.jsp?energyterm=kJ/mole&tag=r21&monomerid=546398&enzyme=DNA+repair+protein+RAD51+homolog+1&column=ki&startPg=0&Increment=50&submit=Search

> <Ligand HET ID in PDB>


> <PDB ID(s) for Ligand-Target Complex>


> <PubChem CID of Ligand>
137408611

> <PubChem SID of Ligand>
469681094

> <ChEBI ID of Ligand>


> <ChEMBL ID of Ligand>


> <DrugBank ID of Ligand>


> <IUPHAR_GRAC ID of Ligand>


> <KEGG ID of Ligand>


> <ZINC ID of Ligand>


> <Number of Protein Chains in Target (bigger than 1 implies a multichain complex)>
1

> <BindingDB Target Chain Sequence>
MAMQMQLEANADTSVEEESFGPQPISRLEQCGINANDVKKLEEAGFHTVEAVAYAPKKELINIKGISEAKADKILAEAAKLVPMGFTTATEFHQRRSEIIQITTGSKELDKLLQGGIETGSITEMFGEFRTGKTQICHTLAVTCQLPIDRGGGEGKAMYIDTEGTFRPERLLAVAERYGLSGSDVLDNVAYARAFNTDHQTQLLYQASAMMVESRYALLIVDSATALYRTDYSGRGELSARQMHLARFLRMLLRLADEFGVAVVITNQVVAQVDGAAMFAADPKKPIGGNIIAHASTTRLYLRKGRGETRICKIYDSPCLPEAEAMFAINADGVGDAKD

> <PDB ID(s) of Target Chain>
1N0W,5JZC,5NP7,5NWL,8BQ2,8BR2,8BSC

> <UniProt (SwissProt) Recommended Name of Target Chain>
DNA repair protein RAD51 homolog 1

> <UniProt (SwissProt) Entry Name of Target Chain>
RAD51_HUMAN

> <UniProt (SwissProt) Primary ID of Target Chain>
Q06609

> <UniProt (SwissProt) Secondary ID(s) of Target Chain>
B0FXP0 B2R8T6 Q6FHX9 Q6ZNA8 Q9BV60

> <UniProt (SwissProt) Alternative ID(s) of Target Chain>


> <UniProt (TrEMBL) Submitted Name of Target Chain>


> <UniProt (TrEMBL) Entry Name of Target Chain>


> <UniProt (TrEMBL) Primary ID of Target Chain>


> <UniProt (TrEMBL) Secondary ID(s) of Target Chain>


> <UniProt (TrEMBL) Alternative ID(s) of Target Chain>


$$$$
00258001.cdx
  Mrv0541 07212217012D          

 38 40  0  0  0  0            999 V2000
   -1.3789    2.5303    0.0000 C   0  0  0  0  0  0  0  0  0  0  0  0
   -1.3789    1.7053    0.0000 C   0  0  0  0  0  0  0  0  0  0  0  0
   -0.5942    1.4503    0.0000 S   0  0  0  0  0  0  0  0  0  0  0  0
   -0.1093    2.1178    0.0000 C   0  0  0  0  0  0  0  0  0  0  0  0
   -0.5942    2.7852    0.0000 N   0  0  0  0  0  0  0  0  0  0  0  0
    0.7157    2.1178    0.0000 C   0  0  0  0  0  0  0  0  0  0  0  0
    1.1282    1.4033    0.0000 C   0  0  0  0  0  0  0  0  0  0  0  0
    1.9532    1.4033    0.0000 C   0  0  0  0  0  0  0  0  0  0  0  0
    2.3657    2.1178    0.0000 C   0  0  0  0  0  0  0  0  0  0  0  0
    1.9532    2.8322    0.0000 C   0  0  0  0  0  0  0  0  0  0  0  0
    1.1282    2.8322    0.0000 C   0  0  0  0  0  0  0  0  0  0  0  0
    3.1907    2.1178    0.0000 N   0  0  0  0  0  0  0  0  0  0  0  0
   -2.0933    1.2928    0.0000 C   0  0  0  0  0  0  0  0  0  0  0  0
   -2.8078    1.7053    0.0000 C   0  0  0  0  0  0  0  0  0  0  0  0
   -3.5223    1.2928    0.0000 C   0  0  0  0  0  0  0  0  0  0  0  0
   -3.5223    0.4678    0.0000 C   0  0  0  0  0  0  0  0  0  0  0  0
   -2.8078    0.0553    0.0000 C   0  0  0  0  0  0  0  0  0  0  0  0
   -2.0933    0.4678    0.0000 C   0  0  0  0  0  0  0  0  0  0  0  0
   -4.2367    0.0553    0.0000 N   0  0  0  0  0  0  0  0  0  0  0  0
   -4.9512    0.4678    0.0000 C   0  0  0  0  0  0  0  0  0  0  0  0
   -5.6657    0.0553    0.0000 C   0  0  0  0  0  0  0  0  0  0  0  0
   -4.9512    1.2928    0.0000 O   0  0  0  0  0  0  0  0  0  0  0  0
   -1.3789    0.0553    0.0000 S   0  0  0  0  0  0  0  0  0  0  0  0
   -0.6644   -0.3572    0.0000 N   0  0  0  0  0  0  0  0  0  0  0  0
   -0.9664    0.7697    0.0000 O   0  0  0  0  0  0  0  0  0  0  0  0
   -1.7914   -0.6592    0.0000 O   0  0  0  0  0  0  0  0  0  0  0  0
   -0.6644   -1.1822    0.0000 C   0  0  0  0  0  0  0  0  0  0  0  0
    0.0501   -1.5947    0.0000 C   0  0  0  0  0  0  0  0  0  0  0  0
    0.0501   -2.4197    0.0000 C   0  0  0  0  0  0  0  0  0  0  0  0
    3.6032    1.4033    0.0000 C   0  0  0  0  0  0  0  0  0  0  0  0
    4.4282    1.4033    0.0000 N   0  0  0  0  0  0  0  0  0  0  0  0
    3.1907    0.6888    0.0000 S   0  0  0  0  0  0  0  0  0  0  0  0
    4.8407    2.1178    0.0000 C   0  0  0  0  0  0  0  0  0  0  0  0
    5.6657    2.1178    0.0000 C   0  0  0  0  0  0  0  0  0  0  0  0
    4.4282    2.8322    0.0000 C   0  0  0  0  0  0  0  0  0  0  0  0
    0.4626   -0.8803    0.0000 C   0  0  0  0  0  0  0  0  0  0  0  0
    0.8751   -1.5947    0.0000 C   0  0  0  0  0  0  0  0  0  0  0  0
    0.7646   -2.8322    0.0000 O   0  0  0  0  0  0  0  0  0  0  0  0
  1  2  4  0  0  0  0
  2  3  4  0  0  0  0
  3  4  4  0  0  0  0
  4  5  4  0  0  0  0
  5  1  4  0  0  0  0
  4  6  1  0  0  0  0
  6  7  4  0  0  0  0
  7  8  4  0  0  0  0
  8  9  4  0  0  0  0
  9 10  4  0  0  0  0
 10 11  4  0  0  0  0
 11  6  4  0  0  0  0
  9 12  1  0  0  0  0
  2 13  1  0  0  0  0
 13 14  4  0  0  0  0
 14 15  4  0  0  0  0
 15 16  4  0  0  0  0
 16 17  4  0  0  0  0
 17 18  4  0  0  0  0
 18 13  4  0  0  0  0
 16 19  1  0  0  0  0
 19 20  1  0  0  0  0
 20 21  1  0  0  0  0
 20 22  2  0  0  0  0
 18 23  1  0  0  0  0
 23 24  1  0  0  0  0
 23 25  2  0  0  0  0
 23 26  2  0  0  0  0
 24 27  1  0  0  0  0
 27 28  1  0  0  0  0
 28 29  1  0  0  0  0
 12 30  1  0  0  0  0
 30 31  1  0  0  0  0
 30 32  2  0  0  0  0
 31 33  1  0  0  0  0
 33 34  1  0  0  0  0
 33 35  1  0  0  0  0
 28 36  1  0  0  0  0
 28 37  1  0  0  0  0
 29 38  1  0  0  0  0
M  END
> <From>
www.bindingDB.org

> <BindingDB Reactant_set_id>
1155248

> <Ligand InChI>
InChI=1S/C26H33N5O4S3/c1-16(2)29-25(36)31-19-8-6-18(7-9-19)24-27-13-22(37-24)21-11-10-20(30-17(3)33)12-23(21)38(34,35)28-14-26(4,5)15-32/h6-13,16,28,32H,14-15H2,1-5H3,(H,30,33)(H2,29,31,36)

> <Ligand InChI Key>
DYVOJGPZZONJHA-UHFFFAOYSA-N

> <BindingDB MonomerID>
546399

> <BindingDB Ligand Name>
US11291655, No D4

> <Target Name>
DNA repair protein RAD51 homolog 1

> <Target Source Organism According to Curator or DataSource>
Homo sapiens

> <Ki (nM)>


> <IC50 (nM)>


> <Kd (nM)>


> <EC50 (nM)>
>10000

> <kon (M-1-s-1)>


> <koff (s-1)>


> <pH>


> <Temp C>


> <Curation/DataSource>
US Patent

> <Article DOI>


> <BindingDB Entry DOI>
10.7270/Q2NG4TV0

> <PMID>


> <PubChem AID>
aid1806421

> <Patent Number>
US11291655

> <Authors>
Castro, AC; McComas, CC; Vacca, J

> <Date of publication>
4/5/2022

> <Date in BindingDB>
7/21/2022

> <Institution>
Cyteir Therapeutics, Inc.

> <Link to Ligand in BindingDB>
http://www.bindingdb.org/bind/chemsearch/marvin/MolStructure.jsp?monomerid=546399

> <Link to Ligand-Target Pair in BindingDB>
http://www.bindingdb.org/jsp/dbsearch/PrimarySearch_ki.jsp?energyterm=kJ/mole&tag=pol&polymerid=4676&target=DNA+repair+protein+RAD51+homolog+1&column=ki&startPg=0&Increment=50&submit=Search

> <Link to Ligand-Target Pair in BindingDB>
http://www.bindingdb.org/jsp/dbsearch/PrimarySearch_ki.jsp?energyterm=kJ/mole&tag=r21&monomerid=546399&enzyme=DNA+repair+protein+RAD51+homolog+1&column=ki&startPg=0&Increment=50&submit=Search

> <Ligand HET ID in PDB>


> <PDB ID(s) for Ligand-Target Complex>


> <PubChem CID of Ligand>
137412016

> <PubChem SID of Ligand>
469681095

> <ChEBI ID of Ligand>


> <ChEMBL ID of Ligand>


> <DrugBank ID of Ligand>


> <IUPHAR_GRAC ID of Ligand>


> <KEGG ID of Ligand>


> <ZINC ID of Ligand>


> <Number of Protein Chains in Target (bigger than 1 implies a multichain complex)>
1

> <BindingDB Target Chain Sequence>
MAMQMQLEANADTSVEEESFGPQPISRLEQCGINANDVKKLEEAGFHTVEAVAYAPKKELINIKGISEAKADKILAEAAKLVPMGFTTATEFHQRRSEIIQITTGSKELDKLLQGGIETGSITEMFGEFRTGKTQICHTLAVTCQLPIDRGGGEGKAMYIDTEGTFRPERLLAVAERYGLSGSDVLDNVAYARAFNTDHQTQLLYQASAMMVESRYALLIVDSATALYRTDYSGRGELSARQMHLARFLRMLLRLADEFGVAVVITNQVVAQVDGAAMFAADPKKPIGGNIIAHASTTRLYLRKGRGETRICKIYDSPCLPEAEAMFAINADGVGDAKD

> <PDB ID(s) of Target Chain>
1N0W,5JZC,5NP7,5NWL,8BQ2,8BR2,8BSC

> <UniProt (SwissProt) Recommended Name of Target Chain>
DNA repair protein RAD51 homolog 1

> <UniProt (SwissProt) Entry Name of Target Chain>
RAD51_HUMAN

> <UniProt (SwissProt) Primary ID of Target Chain>
Q06609

> <UniProt (SwissProt) Secondary ID(s) of Target Chain>
B0FXP0 B2R8T6 Q6FHX9 Q6ZNA8 Q9BV60

> <UniProt (SwissProt) Alternative ID(s) of Target Chain>


> <UniProt (TrEMBL) Submitted Name of Target Chain>


> <UniProt (TrEMBL) Entry Name of Target Chain>


> <UniProt (TrEMBL) Primary ID of Target Chain>


> <UniProt (TrEMBL) Secondary ID(s) of Target Chain>


> <UniProt (TrEMBL) Alternative ID(s) of Target Chain>


$$$$
00259001.cdx
  Mrv0541 07212217012D          

 36 38  0  0  0  0            999 V2000
   -1.3789    2.3240    0.0000 C   0  0  0  0  0  0  0  0  0  0  0  0
   -1.3789    1.4990    0.0000 C   0  0  0  0  0  0  0  0  0  0  0  0
   -0.5942    1.2441    0.0000 S   0  0  0  0  0  0  0  0  0  0  0  0
   -0.1093    1.9115    0.0000 C   0  0  0  0  0  0  0  0  0  0  0  0
   -0.5942    2.5790    0.0000 N   0  0  0  0  0  0  0  0  0  0  0  0
    0.7157    1.9115    0.0000 C   0  0  0  0  0  0  0  0  0  0  0  0
    1.1282    1.1970    0.0000 C   0  0  0  0  0  0  0  0  0  0  0  0
    1.9532    1.1970    0.0000 C   0  0  0  0  0  0  0  0  0  0  0  0
    2.3657    1.9115    0.0000 C   0  0  0  0  0  0  0  0  0  0  0  0
    1.9532    2.6260    0.0000 C   0  0  0  0  0  0  0  0  0  0  0  0
    1.1282    2.6260    0.0000 C   0  0  0  0  0  0  0  0  0  0  0  0
    3.1907    1.9115    0.0000 N   0  0  0  0  0  0  0  0  0  0  0  0
   -2.0933    1.0865    0.0000 C   0  0  0  0  0  0  0  0  0  0  0  0
   -2.8078    1.4990    0.0000 C   0  0  0  0  0  0  0  0  0  0  0  0
   -3.5223    1.0865    0.0000 C   0  0  0  0  0  0  0  0  0  0  0  0
   -3.5223    0.2615    0.0000 C   0  0  0  0  0  0  0  0  0  0  0  0
   -2.8078   -0.1510    0.0000 C   0  0  0  0  0  0  0  0  0  0  0  0
   -2.0933    0.2615    0.0000 C   0  0  0  0  0  0  0  0  0  0  0  0
   -4.2367   -0.1510    0.0000 N   0  0  0  0  0  0  0  0  0  0  0  0
   -4.9512    0.2615    0.0000 C   0  0  0  0  0  0  0  0  0  0  0  0
   -5.6657   -0.1510    0.0000 C   0  0  0  0  0  0  0  0  0  0  0  0
   -4.9512    1.0865    0.0000 O   0  0  0  0  0  0  0  0  0  0  0  0
   -1.3789   -0.1510    0.0000 S   0  0  0  0  0  0  0  0  0  0  0  0
   -0.6644   -0.5635    0.0000 N   0  0  0  0  0  0  0  0  0  0  0  0
   -0.9664    0.5635    0.0000 O   0  0  0  0  0  0  0  0  0  0  0  0
   -1.7914   -0.8655    0.0000 O   0  0  0  0  0  0  0  0  0  0  0  0
   -0.6644   -1.3885    0.0000 C   0  0  2  0  0  0  0  0  0  0  0  0
    3.6032    1.1970    0.0000 C   0  0  0  0  0  0  0  0  0  0  0  0
    4.4282    1.1970    0.0000 N   0  0  0  0  0  0  0  0  0  0  0  0
    3.1907    0.4826    0.0000 S   0  0  0  0  0  0  0  0  0  0  0  0
    4.8407    1.9115    0.0000 C   0  0  0  0  0  0  0  0  0  0  0  0
    5.6657    1.9115    0.0000 C   0  0  0  0  0  0  0  0  0  0  0  0
    4.4282    2.6260    0.0000 C   0  0  0  0  0  0  0  0  0  0  0  0
   -1.3789   -1.8010    0.0000 C   0  0  0  0  0  0  0  0  0  0  0  0
   -1.3789   -2.6260    0.0000 O   0  0  0  0  0  0  0  0  0  0  0  0
    0.0501   -1.8010    0.0000 C   0  0  0  0  0  0  0  0  0  0  0  0
  1  2  4  0  0  0  0
  2  3  4  0  0  0  0
  3  4  4  0  0  0  0
  4  5  4  0  0  0  0
  5  1  4  0  0  0  0
  4  6  1  0  0  0  0
  6  7  4  0  0  0  0
  7  8  4  0  0  0  0
  8  9  4  0  0  0  0
  9 10  4  0  0  0  0
 10 11  4  0  0  0  0
 11  6  4  0  0  0  0
  9 12  1  0  0  0  0
  2 13  1  0  0  0  0
 13 14  4  0  0  0  0
 14 15  4  0  0  0  0
 15 16  4  0  0  0  0
 16 17  4  0  0  0  0
 17 18  4  0  0  0  0
 18 13  4  0  0  0  0
 16 19  1  0  0  0  0
 19 20  1  0  0  0  0
 20 21  1  0  0  0  0
 20 22  2  0  0  0  0
 18 23  1  0  0  0  0
 23 24  1  0  0  0  0
 23 25  2  0  0  0  0
 23 26  2  0  0  0  0
 27 24  1  0  0  0  0
 12 28  1  0  0  0  0
 28 29  1  0  0  0  0
 28 30  2  0  0  0  0
 29 31  1  0  0  0  0
 31 32  1  0  0  0  0
 31 33  1  0  0  0  0
 27 34  1  0  0  0  0
 34 35  1  0  0  0  0
 27 36  1  1  0  0  0
M  END
> <From>
www.bindingDB.org

> <BindingDB Reactant_set_id>
1155249

> <Ligand InChI>
InChI=1S/C24H29N5O4S3/c1-14(2)26-24(34)28-18-7-5-17(6-8-18)23-25-12-21(35-23)20-10-9-19(27-16(4)31)11-22(20)36(32,33)29-15(3)13-30/h5-12,14-15,29-30H,13H2,1-4H3,(H,27,31)(H2,26,28,34)/t15-/m0/s1

> <Ligand InChI Key>
OOXJETAPNDPVKV-HNNXBMFYSA-N

> <BindingDB MonomerID>
546400

> <BindingDB Ligand Name>
US11291655, No D5

> <Target Name>
DNA repair protein RAD51 homolog 1

> <Target Source Organism According to Curator or DataSource>
Homo sapiens

> <Ki (nM)>


> <IC50 (nM)>


> <Kd (nM)>


> <EC50 (nM)>
>10000

> <kon (M-1-s-1)>


> <koff (s-1)>


> <pH>


> <Temp C>


> <Curation/DataSource>
US Patent

> <Article DOI>


> <BindingDB Entry DOI>
10.7270/Q2NG4TV0

> <PMID>


> <PubChem AID>
aid1806421

> <Patent Number>
US11291655

> <Authors>
Castro, AC; McComas, CC; Vacca, J

> <Date of publication>
4/5/2022

> <Date in BindingDB>
7/21/2022

> <Institution>
Cyteir Therapeutics, Inc.

> <Link to Ligand in BindingDB>
http://www.bindingdb.org/bind/chemsearch/marvin/MolStructure.jsp?monomerid=546400

> <Link to Ligand-Target Pair in BindingDB>
http://www.bindingdb.org/jsp/dbsearch/PrimarySearch_ki.jsp?energyterm=kJ/mole&tag=pol&polymerid=4676&target=DNA+repair+protein+RAD51+homolog+1&column=ki&startPg=0&Increment=50&submit=Search

> <Link to Ligand-Target Pair in BindingDB>
http://www.bindingdb.org/jsp/dbsearch/PrimarySearch_ki.jsp?energyterm=kJ/mole&tag=r21&monomerid=546400&enzyme=DNA+repair+protein+RAD51+homolog+1&column=ki&startPg=0&Increment=50&submit=Search

> <Ligand HET ID in PDB>


> <PDB ID(s) for Ligand-Target Complex>


> <PubChem CID of Ligand>
137412037

> <PubChem SID of Ligand>
469681096

> <ChEBI ID of Ligand>


> <ChEMBL ID of Ligand>


> <DrugBank ID of Ligand>


> <IUPHAR_GRAC ID of Ligand>


> <KEGG ID of Ligand>


> <ZINC ID of Ligand>


> <Number of Protein Chains in Target (bigger than 1 implies a multichain complex)>
1

> <BindingDB Target Chain Sequence>
MAMQMQLEANADTSVEEESFGPQPISRLEQCGINANDVKKLEEAGFHTVEAVAYAPKKELINIKGISEAKADKILAEAAKLVPMGFTTATEFHQRRSEIIQITTGSKELDKLLQGGIETGSITEMFGEFRTGKTQICHTLAVTCQLPIDRGGGEGKAMYIDTEGTFRPERLLAVAERYGLSGSDVLDNVAYARAFNTDHQTQLLYQASAMMVESRYALLIVDSATALYRTDYSGRGELSARQMHLARFLRMLLRLADEFGVAVVITNQVVAQVDGAAMFAADPKKPIGGNIIAHASTTRLYLRKGRGETRICKIYDSPCLPEAEAMFAINADGVGDAKD

> <PDB ID(s) of Target Chain>
1N0W,5JZC,5NP7,5NWL,8BQ2,8BR2,8BSC

> <UniProt (SwissProt) Recommended Name of Target Chain>
DNA repair protein RAD51 homolog 1

> <UniProt (SwissProt) Entry Name of Target Chain>
RAD51_HUMAN

> <UniProt (SwissProt) Primary ID of Target Chain>
Q06609

> <UniProt (SwissProt) Secondary ID(s) of Target Chain>
B0FXP0 B2R8T6 Q6FHX9 Q6ZNA8 Q9BV60

> <UniProt (SwissProt) Alternative ID(s) of Target Chain>


> <UniProt (TrEMBL) Submitted Name of Target Chain>


> <UniProt (TrEMBL) Entry Name of Target Chain>


> <UniProt (TrEMBL) Primary ID of Target Chain>


> <UniProt (TrEMBL) Secondary ID(s) of Target Chain>


> <UniProt (TrEMBL) Alternative ID(s) of Target Chain>


$$$$
00260001.cdx
  Mrv0541 07212217012D          

 33 35  0  0  0  0            999 V2000
   -1.3789    1.4437    0.0000 C   0  0  0  0  0  0  0  0  0  0  0  0
   -1.3789    0.6187    0.0000 C   0  0  0  0  0  0  0  0  0  0  0  0
   -0.5942    0.3638    0.0000 S   0  0  0  0  0  0  0  0  0  0  0  0
   -0.1093    1.0312    0.0000 C   0  0  0  0  0  0  0  0  0  0  0  0
   -0.5942    1.6987    0.0000 N   0  0  0  0  0  0  0  0  0  0  0  0
    0.7157    1.0312    0.0000 C   0  0  0  0  0  0  0  0  0  0  0  0
    1.1282    0.3168    0.0000 C   0  0  0  0  0  0  0  0  0  0  0  0
    1.9532    0.3168    0.0000 C   0  0  0  0  0  0  0  0  0  0  0  0
    2.3657    1.0312    0.0000 C   0  0  0  0  0  0  0  0  0  0  0  0
    1.9532    1.7457    0.0000 C   0  0  0  0  0  0  0  0  0  0  0  0
    1.1282    1.7457    0.0000 C   0  0  0  0  0  0  0  0  0  0  0  0
    3.1907    1.0312    0.0000 N   0  0  0  0  0  0  0  0  0  0  0  0
   -2.0933    0.2062    0.0000 C   0  0  0  0  0  0  0  0  0  0  0  0
   -2.8078    0.6187    0.0000 C   0  0  0  0  0  0  0  0  0  0  0  0
   -3.5223    0.2062    0.0000 C   0  0  0  0  0  0  0  0  0  0  0  0
   -3.5223   -0.6188    0.0000 C   0  0  0  0  0  0  0  0  0  0  0  0
   -2.8078   -1.0313    0.0000 C   0  0  0  0  0  0  0  0  0  0  0  0
   -2.0933   -0.6188    0.0000 C   0  0  0  0  0  0  0  0  0  0  0  0
   -4.2367   -1.0313    0.0000 N   0  0  0  0  0  0  0  0  0  0  0  0
   -4.9512   -0.6188    0.0000 C   0  0  0  0  0  0  0  0  0  0  0  0
   -5.6657   -1.0313    0.0000 C   0  0  0  0  0  0  0  0  0  0  0  0
   -4.9512    0.2062    0.0000 O   0  0  0  0  0  0  0  0  0  0  0  0
   -1.3789   -1.0313    0.0000 S   0  0  0  0  0  0  0  0  0  0  0  0
   -0.6644   -1.4438    0.0000 N   0  0  0  0  0  0  0  0  0  0  0  0
   -0.9664   -0.3168    0.0000 O   0  0  0  0  0  0  0  0  0  0  0  0
   -1.7914   -1.7457    0.0000 O   0  0  0  0  0  0  0  0  0  0  0  0
    3.6032    0.3168    0.0000 C   0  0  0  0  0  0  0  0  0  0  0  0
    4.4282    0.3168    0.0000 N   0  0  0  0  0  0  0  0  0  0  0  0
    3.1907   -0.3977    0.0000 S   0  0  0  0  0  0  0  0  0  0  0  0
    4.8407    1.0312    0.0000 C   0  0  0  0  0  0  0  0  0  0  0  0
    5.6657    1.0312    0.0000 C   0  0  0  0  0  0  0  0  0  0  0  0
    4.4282    1.7457    0.0000 C   0  0  0  0  0  0  0  0  0  0  0  0
    0.0501   -1.0312    0.0000 C   0  0  0  0  0  0  0  0  0  0  0  0
  1  2  4  0  0  0  0
  2  3  4  0  0  0  0
  3  4  4  0  0  0  0
  4  5  4  0  0  0  0
  5  1  4  0  0  0  0
  4  6  1  0  0  0  0
  6  7  4  0  0  0  0
  7  8  4  0  0  0  0
  8  9  4  0  0  0  0
  9 10  4  0  0  0  0
 10 11  4  0  0  0  0
 11  6  4  0  0  0  0
  9 12  1  0  0  0  0
  2 13  1  0  0  0  0
 13 14  4  0  0  0  0
 14 15  4  0  0  0  0
 15 16  4  0  0  0  0
 16 17  4  0  0  0  0
 17 18  4  0  0  0  0
 18 13  4  0  0  0  0
 16 19  1  0  0  0  0
 19 20  1  0  0  0  0
 20 21  1  0  0  0  0
 20 22  2  0  0  0  0
 18 23  1  0  0  0  0
 23 24  1  0  0  0  0
 23 25  2  0  0  0  0
 23 26  2  0  0  0  0
 12 27  1  0  0  0  0
 27 28  1  0  0  0  0
 27 29  2  0  0  0  0
 28 30  1  0  0  0  0
 30 31  1  0  0  0  0
 30 32  1  0  0  0  0
 24 33  1  0  0  0  0
M  END
> <From>
www.bindingDB.org

> <BindingDB Reactant_set_id>
1155250

> <Ligand InChI>
InChI=1S/C22H25N5O3S3/c1-13(2)25-22(31)27-16-7-5-15(6-8-16)21-24-12-19(32-21)18-10-9-17(26-14(3)28)11-20(18)33(29,30)23-4/h5-13,23H,1-4H3,(H,26,28)(H2,25,27,31)

> <Ligand InChI Key>
JXYBGRODSZBBKV-UHFFFAOYSA-N

> <BindingDB MonomerID>
546401

> <BindingDB Ligand Name>
US11291655, No D6

> <Target Name>
DNA repair protein RAD51 homolog 1

> <Target Source Organism According to Curator or DataSource>
Homo sapiens

> <Ki (nM)>


> <IC50 (nM)>


> <Kd (nM)>


> <EC50 (nM)>
>10000

> <kon (M-1-s-1)>


> <koff (s-1)>


> <pH>


> <Temp C>


> <Curation/DataSource>
US Patent

> <Article DOI>


> <BindingDB Entry DOI>
10.7270/Q2NG4TV0

> <PMID>


> <PubChem AID>
aid1806421

> <Patent Number>
US11291655

> <Authors>
Castro, AC; McComas, CC; Vacca, J

> <Date of publication>
4/5/2022

> <Date in BindingDB>
7/21/2022

> <Institution>
Cyteir Therapeutics, Inc.

> <Link to Ligand in BindingDB>
http://www.bindingdb.org/bind/chemsearch/marvin/MolStructure.jsp?monomerid=546401

> <Link to Ligand-Target Pair in BindingDB>
http://www.bindingdb.org/jsp/dbsearch/PrimarySearch_ki.jsp?energyterm=kJ/mole&tag=pol&polymerid=4676&target=DNA+repair+protein+RAD51+homolog+1&column=ki&startPg=0&Increment=50&submit=Search

> <Link to Ligand-Target Pair in BindingDB>
http://www.bindingdb.org/jsp/dbsearch/PrimarySearch_ki.jsp?energyterm=kJ/mole&tag=r21&monomerid=546401&enzyme=DNA+repair+protein+RAD51+homolog+1&column=ki&startPg=0&Increment=50&submit=Search

> <Ligand HET ID in PDB>


> <PDB ID(s) for Ligand-Target Complex>


> <PubChem CID of Ligand>
137411686

> <PubChem SID of Ligand>
469681097

> <ChEBI ID of Ligand>


> <ChEMBL ID of Ligand>


> <DrugBank ID of Ligand>


> <IUPHAR_GRAC ID of Ligand>


> <KEGG ID of Ligand>


> <ZINC ID of Ligand>


> <Number of Protein Chains in Target (bigger than 1 implies a multichain complex)>
1

> <BindingDB Target Chain Sequence>
MAMQMQLEANADTSVEEESFGPQPISRLEQCGINANDVKKLEEAGFHTVEAVAYAPKKELINIKGISEAKADKILAEAAKLVPMGFTTATEFHQRRSEIIQITTGSKELDKLLQGGIETGSITEMFGEFRTGKTQICHTLAVTCQLPIDRGGGEGKAMYIDTEGTFRPERLLAVAERYGLSGSDVLDNVAYARAFNTDHQTQLLYQASAMMVESRYALLIVDSATALYRTDYSGRGELSARQMHLARFLRMLLRLADEFGVAVVITNQVVAQVDGAAMFAADPKKPIGGNIIAHASTTRLYLRKGRGETRICKIYDSPCLPEAEAMFAINADGVGDAKD

> <PDB ID(s) of Target Chain>
1N0W,5JZC,5NP7,5NWL,8BQ2,8BR2,8BSC

> <UniProt (SwissProt) Recommended Name of Target Chain>
DNA repair protein RAD51 homolog 1

> <UniProt (SwissProt) Entry Name of Target Chain>
RAD51_HUMAN

> <UniProt (SwissProt) Primary ID of Target Chain>
Q06609

> <UniProt (SwissProt) Secondary ID(s) of Target Chain>
B0FXP0 B2R8T6 Q6FHX9 Q6ZNA8 Q9BV60

> <UniProt (SwissProt) Alternative ID(s) of Target Chain>


> <UniProt (TrEMBL) Submitted Name of Target Chain>


> <UniProt (TrEMBL) Entry Name of Target Chain>


> <UniProt (TrEMBL) Primary ID of Target Chain>


> <UniProt (TrEMBL) Secondary ID(s) of Target Chain>


> <UniProt (TrEMBL) Alternative ID(s) of Target Chain>


$$$$
00261001.cdx
  Mrv0541 07212217012D          

 39 42  0  0  0  0            999 V2000
   -1.3789    2.8865    0.0000 C   0  0  0  0  0  0  0  0  0  0  0  0
   -1.3789    2.0615    0.0000 C   0  0  0  0  0  0  0  0  0  0  0  0
   -0.5942    1.8066    0.0000 S   0  0  0  0  0  0  0  0  0  0  0  0
   -0.1093    2.4740    0.0000 C   0  0  0  0  0  0  0  0  0  0  0  0
   -0.5942    3.1415    0.0000 N   0  0  0  0  0  0  0  0  0  0  0  0
    0.7157    2.4740    0.0000 C   0  0  0  0  0  0  0  0  0  0  0  0
    1.1282    1.7596    0.0000 C   0  0  0  0  0  0  0  0  0  0  0  0
    1.9532    1.7596    0.0000 C   0  0  0  0  0  0  0  0  0  0  0  0
    2.3657    2.4740    0.0000 C   0  0  0  0  0  0  0  0  0  0  0  0
    1.9532    3.1885    0.0000 C   0  0  0  0  0  0  0  0  0  0  0  0
    1.1282    3.1885    0.0000 C   0  0  0  0  0  0  0  0  0  0  0  0
    3.1907    2.4740    0.0000 N   0  0  0  0  0  0  0  0  0  0  0  0
   -2.0933    1.6490    0.0000 C   0  0  0  0  0  0  0  0  0  0  0  0
   -2.8078    2.0615    0.0000 C   0  0  0  0  0  0  0  0  0  0  0  0
   -3.5223    1.6490    0.0000 C   0  0  0  0  0  0  0  0  0  0  0  0
   -3.5223    0.8240    0.0000 C   0  0  0  0  0  0  0  0  0  0  0  0
   -2.8078    0.4115    0.0000 C   0  0  0  0  0  0  0  0  0  0  0  0
   -2.0933    0.8240    0.0000 C   0  0  0  0  0  0  0  0  0  0  0  0
   -4.2367    0.4115    0.0000 N   0  0  0  0  0  0  0  0  0  0  0  0
   -4.9512    0.8240    0.0000 C   0  0  0  0  0  0  0  0  0  0  0  0
   -5.6657    0.4115    0.0000 C   0  0  0  0  0  0  0  0  0  0  0  0
   -4.9512    1.6490    0.0000 O   0  0  0  0  0  0  0  0  0  0  0  0
   -1.3789    0.4115    0.0000 S   0  0  0  0  0  0  0  0  0  0  0  0
   -0.6644   -0.0010    0.0000 N   0  0  0  0  0  0  0  0  0  0  0  0
   -0.9664    1.1260    0.0000 O   0  0  0  0  0  0  0  0  0  0  0  0
   -1.7914   -0.3029    0.0000 O   0  0  0  0  0  0  0  0  0  0  0  0
   -0.4509   -0.7978    0.0000 C   0  0  2  0  0  0  0  0  0  0  0  0
    3.6032    1.7596    0.0000 C   0  0  0  0  0  0  0  0  0  0  0  0
    4.4282    1.7596    0.0000 N   0  0  0  0  0  0  0  0  0  0  0  0
    3.1907    1.0451    0.0000 S   0  0  0  0  0  0  0  0  0  0  0  0
    4.8407    2.4740    0.0000 C   0  0  0  0  0  0  0  0  0  0  0  0
    5.6657    2.4740    0.0000 C   0  0  0  0  0  0  0  0  0  0  0  0
    4.4282    3.1885    0.0000 C   0  0  0  0  0  0  0  0  0  0  0  0
   -1.0342   -1.3812    0.0000 C   0  0  0  0  0  0  0  0  0  0  0  0
   -0.8207   -2.1781    0.0000 C   0  0  0  0  0  0  0  0  0  0  0  0
   -0.0238   -2.3916    0.0000 C   0  0  2  0  0  0  0  0  0  0  0  0
    0.5596   -1.8083    0.0000 C   0  0  0  0  0  0  0  0  0  0  0  0
    0.3460   -1.0114    0.0000 C   0  0  0  0  0  0  0  0  0  0  0  0
    0.1897   -3.1885    0.0000 O   0  0  0  0  0  0  0  0  0  0  0  0
  1  2  4  0  0  0  0
  2  3  4  0  0  0  0
  3  4  4  0  0  0  0
  4  5  4  0  0  0  0
  5  1  4  0  0  0  0
  4  6  1  0  0  0  0
  6  7  4  0  0  0  0
  7  8  4  0  0  0  0
  8  9  4  0  0  0  0
  9 10  4  0  0  0  0
 10 11  4  0  0  0  0
 11  6  4  0  0  0  0
  9 12  1  0  0  0  0
  2 13  1  0  0  0  0
 13 14  4  0  0  0  0
 14 15  4  0  0  0  0
 15 16  4  0  0  0  0
 16 17  4  0  0  0  0
 17 18  4  0  0  0  0
 18 13  4  0  0  0  0
 16 19  1  0  0  0  0
 19 20  1  0  0  0  0
 20 21  1  0  0  0  0
 20 22  2  0  0  0  0
 18 23  1  0  0  0  0
 23 24  1  0  0  0  0
 23 25  2  0  0  0  0
 23 26  2  0  0  0  0
 27 24  1  1  0  0  0
 12 28  1  0  0  0  0
 28 29  1  0  0  0  0
 28 30  2  0  0  0  0
 29 31  1  0  0  0  0
 31 32  1  0  0  0  0
 31 33  1  0  0  0  0
 27 34  1  0  0  0  0
 34 35  1  0  0  0  0
 36 35  1  0  0  0  0
 36 37  1  0  0  0  0
 37 38  1  0  0  0  0
 27 38  1  0  0  0  0
 36 39  1  6  0  0  0
M  END
> <From>
www.bindingDB.org

> <BindingDB Reactant_set_id>
1155251

> <Ligand InChI>
InChI=1S/C27H33N5O4S3/c1-16(2)29-27(37)31-19-6-4-18(5-7-19)26-28-15-24(38-26)23-13-10-21(30-17(3)33)14-25(23)39(35,36)32-20-8-11-22(34)12-9-20/h4-7,10,13-16,20,22,32,34H,8-9,11-12H2,1-3H3,(H,30,33)(H2,29,31,37)/t20-,22-

> <Ligand InChI Key>
APEGLBFVIOGAMO-AQYVVDRMSA-N

> <BindingDB MonomerID>
546402

> <BindingDB Ligand Name>
US11291655, No D7

> <Target Name>
DNA repair protein RAD51 homolog 1

> <Target Source Organism According to Curator or DataSource>
Homo sapiens

> <Ki (nM)>


> <IC50 (nM)>


> <Kd (nM)>


> <EC50 (nM)>
>10000

> <kon (M-1-s-1)>


> <koff (s-1)>


> <pH>


> <Temp C>


> <Curation/DataSource>
US Patent

> <Article DOI>


> <BindingDB Entry DOI>
10.7270/Q2NG4TV0

> <PMID>


> <PubChem AID>
aid1806421

> <Patent Number>
US11291655

> <Authors>
Castro, AC; McComas, CC; Vacca, J

> <Date of publication>
4/5/2022

> <Date in BindingDB>
7/21/2022

> <Institution>
Cyteir Therapeutics, Inc.

> <Link to Ligand in BindingDB>
http://www.bindingdb.org/bind/chemsearch/marvin/MolStructure.jsp?monomerid=546402

> <Link to Ligand-Target Pair in BindingDB>
http://www.bindingdb.org/jsp/dbsearch/PrimarySearch_ki.jsp?energyterm=kJ/mole&tag=pol&polymerid=4676&target=DNA+repair+protein+RAD51+homolog+1&column=ki&startPg=0&Increment=50&submit=Search

> <Link to Ligand-Target Pair in BindingDB>
http://www.bindingdb.org/jsp/dbsearch/PrimarySearch_ki.jsp?energyterm=kJ/mole&tag=r21&monomerid=546402&enzyme=DNA+repair+protein+RAD51+homolog+1&column=ki&startPg=0&Increment=50&submit=Search

> <Ligand HET ID in PDB>


> <PDB ID(s) for Ligand-Target Complex>


> <PubChem CID of Ligand>
137412071

> <PubChem SID of Ligand>
469681098

> <ChEBI ID of Ligand>


> <ChEMBL ID of Ligand>


> <DrugBank ID of Ligand>


> <IUPHAR_GRAC ID of Ligand>


> <KEGG ID of Ligand>


> <ZINC ID of Ligand>


> <Number of Protein Chains in Target (bigger than 1 implies a multichain complex)>
1

> <BindingDB Target Chain Sequence>
MAMQMQLEANADTSVEEESFGPQPISRLEQCGINANDVKKLEEAGFHTVEAVAYAPKKELINIKGISEAKADKILAEAAKLVPMGFTTATEFHQRRSEIIQITTGSKELDKLLQGGIETGSITEMFGEFRTGKTQICHTLAVTCQLPIDRGGGEGKAMYIDTEGTFRPERLLAVAERYGLSGSDVLDNVAYARAFNTDHQTQLLYQASAMMVESRYALLIVDSATALYRTDYSGRGELSARQMHLARFLRMLLRLADEFGVAVVITNQVVAQVDGAAMFAADPKKPIGGNIIAHASTTRLYLRKGRGETRICKIYDSPCLPEAEAMFAINADGVGDAKD

> <PDB ID(s) of Target Chain>
1N0W,5JZC,5NP7,5NWL,8BQ2,8BR2,8BSC

> <UniProt (SwissProt) Recommended Name of Target Chain>
DNA repair protein RAD51 homolog 1

> <UniProt (SwissProt) Entry Name of Target Chain>
RAD51_HUMAN

> <UniProt (SwissProt) Primary ID of Target Chain>
Q06609

> <UniProt (SwissProt) Secondary ID(s) of Target Chain>
B0FXP0 B2R8T6 Q6FHX9 Q6ZNA8 Q9BV60

> <UniProt (SwissProt) Alternative ID(s) of Target Chain>


> <UniProt (TrEMBL) Submitted Name of Target Chain>


> <UniProt (TrEMBL) Entry Name of Target Chain>


> <UniProt (TrEMBL) Primary ID of Target Chain>


> <UniProt (TrEMBL) Secondary ID(s) of Target Chain>


> <UniProt (TrEMBL) Alternative ID(s) of Target Chain>


$$$$
00262001.cdx
  Mrv0541 07212217012D          

 37 40  0  0  0  0            999 V2000
   -1.3789    1.9115    0.0000 C   0  0  0  0  0  0  0  0  0  0  0  0
   -1.3789    1.0865    0.0000 C   0  0  0  0  0  0  0  0  0  0  0  0
   -0.5942    0.8316    0.0000 S   0  0  0  0  0  0  0  0  0  0  0  0
   -0.1093    1.4990    0.0000 C   0  0  0  0  0  0  0  0  0  0  0  0
   -0.5942    2.1665    0.0000 N   0  0  0  0  0  0  0  0  0  0  0  0
    0.7157    1.4990    0.0000 C   0  0  0  0  0  0  0  0  0  0  0  0
    1.1282    0.7845    0.0000 C   0  0  0  0  0  0  0  0  0  0  0  0
    1.9532    0.7845    0.0000 C   0  0  0  0  0  0  0  0  0  0  0  0
    2.3657    1.4990    0.0000 C   0  0  0  0  0  0  0  0  0  0  0  0
    1.9532    2.2135    0.0000 C   0  0  0  0  0  0  0  0  0  0  0  0
    1.1282    2.2135    0.0000 C   0  0  0  0  0  0  0  0  0  0  0  0
    3.1907    1.4990    0.0000 N   0  0  0  0  0  0  0  0  0  0  0  0
   -2.0933    0.6740    0.0000 C   0  0  0  0  0  0  0  0  0  0  0  0
   -2.8078    1.0865    0.0000 C   0  0  0  0  0  0  0  0  0  0  0  0
   -3.5223    0.6740    0.0000 C   0  0  0  0  0  0  0  0  0  0  0  0
   -3.5223   -0.1510    0.0000 C   0  0  0  0  0  0  0  0  0  0  0  0
   -2.8078   -0.5635    0.0000 C   0  0  0  0  0  0  0  0  0  0  0  0
   -2.0933   -0.1510    0.0000 C   0  0  0  0  0  0  0  0  0  0  0  0
   -4.2367   -0.5635    0.0000 N   0  0  0  0  0  0  0  0  0  0  0  0
   -4.9512   -0.1510    0.0000 C   0  0  0  0  0  0  0  0  0  0  0  0
   -5.6657   -0.5635    0.0000 C   0  0  0  0  0  0  0  0  0  0  0  0
   -4.9512    0.6740    0.0000 O   0  0  0  0  0  0  0  0  0  0  0  0
   -1.3789   -0.5635    0.0000 S   0  0  0  0  0  0  0  0  0  0  0  0
   -0.6644   -0.9760    0.0000 N   0  0  0  0  0  0  0  0  0  0  0  0
   -0.9664    0.1510    0.0000 O   0  0  0  0  0  0  0  0  0  0  0  0
   -1.7914   -1.2780    0.0000 O   0  0  0  0  0  0  0  0  0  0  0  0
    3.6032    0.7845    0.0000 C   0  0  0  0  0  0  0  0  0  0  0  0
    4.4282    0.7845    0.0000 N   0  0  0  0  0  0  0  0  0  0  0  0
    3.1907    0.0701    0.0000 S   0  0  0  0  0  0  0  0  0  0  0  0
    4.8407    1.4990    0.0000 C   0  0  0  0  0  0  0  0  0  0  0  0
    5.6657    1.4990    0.0000 C   0  0  0  0  0  0  0  0  0  0  0  0
    4.4282    2.2135    0.0000 C   0  0  0  0  0  0  0  0  0  0  0  0
   -0.6644   -1.8010    0.0000 C   0  0  0  0  0  0  0  0  0  0  0  0
    0.0501   -2.2135    0.0000 C   0  0  0  0  0  0  0  0  0  0  0  0
    0.7646   -1.8010    0.0000 O   0  0  0  0  0  0  0  0  0  0  0  0
    0.7646   -0.9760    0.0000 C   0  0  0  0  0  0  0  0  0  0  0  0
    0.0501   -0.5635    0.0000 C   0  0  0  0  0  0  0  0  0  0  0  0
  1  2  4  0  0  0  0
  2  3  4  0  0  0  0
  3  4  4  0  0  0  0
  4  5  4  0  0  0  0
  5  1  4  0  0  0  0
  4  6  1  0  0  0  0
  6  7  4  0  0  0  0
  7  8  4  0  0  0  0
  8  9  4  0  0  0  0
  9 10  4  0  0  0  0
 10 11  4  0  0  0  0
 11  6  4  0  0  0  0
  9 12  1  0  0  0  0
  2 13  1  0  0  0  0
 13 14  4  0  0  0  0
 14 15  4  0  0  0  0
 15 16  4  0  0  0  0
 16 17  4  0  0  0  0
 17 18  4  0  0  0  0
 18 13  4  0  0  0  0
 16 19  1  0  0  0  0
 19 20  1  0  0  0  0
 20 21  1  0  0  0  0
 20 22  2  0  0  0  0
 18 23  1  0  0  0  0
 23 24  1  0  0  0  0
 23 25  2  0  0  0  0
 23 26  2  0  0  0  0
 12 27  1  0  0  0  0
 27 28  1  0  0  0  0
 27 29  2  0  0  0  0
 28 30  1  0  0  0  0
 30 31  1  0  0  0  0
 30 32  1  0  0  0  0
 24 33  1  0  0  0  0
 33 34  1  0  0  0  0
 34 35  1  0  0  0  0
 35 36  1  0  0  0  0
 36 37  1  0  0  0  0
 37 24  1  0  0  0  0
M  END
> <From>
www.bindingDB.org

> <BindingDB Reactant_set_id>
1155252

> <Ligand InChI>
InChI=1S/C25H29N5O4S3/c1-16(2)27-25(35)29-19-6-4-18(5-7-19)24-26-15-22(36-24)21-9-8-20(28-17(3)31)14-23(21)37(32,33)30-10-12-34-13-11-30/h4-9,14-16H,10-13H2,1-3H3,(H,28,31)(H2,27,29,35)

> <Ligand InChI Key>
GJDYYWMREDUFSH-UHFFFAOYSA-N

> <BindingDB MonomerID>
546403

> <BindingDB Ligand Name>
US11291655, No D8

> <Target Name>
DNA repair protein RAD51 homolog 1

> <Target Source Organism According to Curator or DataSource>
Homo sapiens

> <Ki (nM)>


> <IC50 (nM)>


> <Kd (nM)>


> <EC50 (nM)>
>10000

> <kon (M-1-s-1)>


> <koff (s-1)>


> <pH>


> <Temp C>


> <Curation/DataSource>
US Patent

> <Article DOI>


> <BindingDB Entry DOI>
10.7270/Q2NG4TV0

> <PMID>


> <PubChem AID>
aid1806421

> <Patent Number>
US11291655

> <Authors>
Castro, AC; McComas, CC; Vacca, J

> <Date of publication>
4/5/2022

> <Date in BindingDB>
7/21/2022

> <Institution>
Cyteir Therapeutics, Inc.

> <Link to Ligand in BindingDB>
http://www.bindingdb.org/bind/chemsearch/marvin/MolStructure.jsp?monomerid=546403

> <Link to Ligand-Target Pair in BindingDB>
http://www.bindingdb.org/jsp/dbsearch/PrimarySearch_ki.jsp?energyterm=kJ/mole&tag=pol&polymerid=4676&target=DNA+repair+protein+RAD51+homolog+1&column=ki&startPg=0&Increment=50&submit=Search

> <Link to Ligand-Target Pair in BindingDB>
http://www.bindingdb.org/jsp/dbsearch/PrimarySearch_ki.jsp?energyterm=kJ/mole&tag=r21&monomerid=546403&enzyme=DNA+repair+protein+RAD51+homolog+1&column=ki&startPg=0&Increment=50&submit=Search

> <Ligand HET ID in PDB>


> <PDB ID(s) for Ligand-Target Complex>


> <PubChem CID of Ligand>
137412024

> <PubChem SID of Ligand>
469681099

> <ChEBI ID of Ligand>


> <ChEMBL ID of Ligand>


> <DrugBank ID of Ligand>


> <IUPHAR_GRAC ID of Ligand>


> <KEGG ID of Ligand>


> <ZINC ID of Ligand>


> <Number of Protein Chains in Target (bigger than 1 implies a multichain complex)>
1

> <BindingDB Target Chain Sequence>
MAMQMQLEANADTSVEEESFGPQPISRLEQCGINANDVKKLEEAGFHTVEAVAYAPKKELINIKGISEAKADKILAEAAKLVPMGFTTATEFHQRRSEIIQITTGSKELDKLLQGGIETGSITEMFGEFRTGKTQICHTLAVTCQLPIDRGGGEGKAMYIDTEGTFRPERLLAVAERYGLSGSDVLDNVAYARAFNTDHQTQLLYQASAMMVESRYALLIVDSATALYRTDYSGRGELSARQMHLARFLRMLLRLADEFGVAVVITNQVVAQVDGAAMFAADPKKPIGGNIIAHASTTRLYLRKGRGETRICKIYDSPCLPEAEAMFAINADGVGDAKD

> <PDB ID(s) of Target Chain>
1N0W,5JZC,5NP7,5NWL,8BQ2,8BR2,8BSC

> <UniProt (SwissProt) Recommended Name of Target Chain>
DNA repair protein RAD51 homolog 1

> <UniProt (SwissProt) Entry Name of Target Chain>
RAD51_HUMAN

> <UniProt (SwissProt) Primary ID of Target Chain>
Q06609

> <UniProt (SwissProt) Secondary ID(s) of Target Chain>
B0FXP0 B2R8T6 Q6FHX9 Q6ZNA8 Q9BV60

> <UniProt (SwissProt) Alternative ID(s) of Target Chain>


> <UniProt (TrEMBL) Submitted Name of Target Chain>


> <UniProt (TrEMBL) Entry Name of Target Chain>


> <UniProt (TrEMBL) Primary ID of Target Chain>


> <UniProt (TrEMBL) Secondary ID(s) of Target Chain>


> <UniProt (TrEMBL) Alternative ID(s) of Target Chain>


$$$$
00263001.cdx
  Mrv0541 07212217012D          

 34 36  0  0  0  0            999 V2000
   -1.3789    1.9115    0.0000 C   0  0  0  0  0  0  0  0  0  0  0  0
   -1.3789    1.0865    0.0000 C   0  0  0  0  0  0  0  0  0  0  0  0
   -0.5942    0.8316    0.0000 S   0  0  0  0  0  0  0  0  0  0  0  0
   -0.1093    1.4990    0.0000 C   0  0  0  0  0  0  0  0  0  0  0  0
   -0.5942    2.1665    0.0000 N   0  0  0  0  0  0  0  0  0  0  0  0
    0.7157    1.4990    0.0000 C   0  0  0  0  0  0  0  0  0  0  0  0
    1.1282    0.7845    0.0000 C   0  0  0  0  0  0  0  0  0  0  0  0
    1.9532    0.7845    0.0000 C   0  0  0  0  0  0  0  0  0  0  0  0
    2.3657    1.4990    0.0000 C   0  0  0  0  0  0  0  0  0  0  0  0
    1.9532    2.2135    0.0000 C   0  0  0  0  0  0  0  0  0  0  0  0
    1.1282    2.2135    0.0000 C   0  0  0  0  0  0  0  0  0  0  0  0
    3.1907    1.4990    0.0000 N   0  0  0  0  0  0  0  0  0  0  0  0
   -2.0933    0.6740    0.0000 C   0  0  0  0  0  0  0  0  0  0  0  0
   -2.8078    1.0865    0.0000 C   0  0  0  0  0  0  0  0  0  0  0  0
   -3.5223    0.6740    0.0000 C   0  0  0  0  0  0  0  0  0  0  0  0
   -3.5223   -0.1510    0.0000 C   0  0  0  0  0  0  0  0  0  0  0  0
   -2.8078   -0.5635    0.0000 C   0  0  0  0  0  0  0  0  0  0  0  0
   -2.0933   -0.1510    0.0000 C   0  0  0  0  0  0  0  0  0  0  0  0
   -4.2367   -0.5635    0.0000 N   0  0  0  0  0  0  0  0  0  0  0  0
   -4.9512   -0.1510    0.0000 C   0  0  0  0  0  0  0  0  0  0  0  0
   -5.6657   -0.5635    0.0000 C   0  0  0  0  0  0  0  0  0  0  0  0
   -4.9512    0.6740    0.0000 O   0  0  0  0  0  0  0  0  0  0  0  0
   -1.3789   -0.5635    0.0000 S   0  0  0  0  0  0  0  0  0  0  0  0
   -0.6644   -0.9760    0.0000 N   0  0  0  0  0  0  0  0  0  0  0  0
   -0.9664    0.1510    0.0000 O   0  0  0  0  0  0  0  0  0  0  0  0
   -1.7914   -1.2780    0.0000 O   0  0  0  0  0  0  0  0  0  0  0  0
   -0.6644   -1.8010    0.0000 C   0  0  0  0  0  0  0  0  0  0  0  0
    0.0501   -2.2135    0.0000 C   0  0  0  0  0  0  0  0  0  0  0  0
    3.6032    0.7845    0.0000 C   0  0  0  0  0  0  0  0  0  0  0  0
    4.4282    0.7845    0.0000 N   0  0  0  0  0  0  0  0  0  0  0  0
    3.1907    0.0701    0.0000 S   0  0  0  0  0  0  0  0  0  0  0  0
    4.8407    1.4990    0.0000 C   0  0  0  0  0  0  0  0  0  0  0  0
    5.6657    1.4990    0.0000 C   0  0  0  0  0  0  0  0  0  0  0  0
    4.4282    2.2135    0.0000 C   0  0  0  0  0  0  0  0  0  0  0  0
  1  2  4  0  0  0  0
  2  3  4  0  0  0  0
  3  4  4  0  0  0  0
  4  5  4  0  0  0  0
  5  1  4  0  0  0  0
  4  6  1  0  0  0  0
  6  7  4  0  0  0  0
  7  8  4  0  0  0  0
  8  9  4  0  0  0  0
  9 10  4  0  0  0  0
 10 11  4  0  0  0  0
 11  6  4  0  0  0  0
  9 12  1  0  0  0  0
  2 13  1  0  0  0  0
 13 14  4  0  0  0  0
 14 15  4  0  0  0  0
 15 16  4  0  0  0  0
 16 17  4  0  0  0  0
 17 18  4  0  0  0  0
 18 13  4  0  0  0  0
 16 19  1  0  0  0  0
 19 20  1  0  0  0  0
 20 21  1  0  0  0  0
 20 22  2  0  0  0  0
 18 23  1  0  0  0  0
 23 24  1  0  0  0  0
 23 25  2  0  0  0  0
 23 26  2  0  0  0  0
 24 27  1  0  0  0  0
 27 28  1  0  0  0  0
 12 29  1  0  0  0  0
 29 30  1  0  0  0  0
 29 31  2  0  0  0  0
 30 32  1  0  0  0  0
 32 33  1  0  0  0  0
 32 34  1  0  0  0  0
M  END
> <From>
www.bindingDB.org

> <BindingDB Reactant_set_id>
1155253

> <Ligand InChI>
InChI=1S/C23H27N5O3S3/c1-5-25-34(30,31)21-12-18(27-15(4)29)10-11-19(21)20-13-24-22(33-20)16-6-8-17(9-7-16)28-23(32)26-14(2)3/h6-14,25H,5H2,1-4H3,(H,27,29)(H2,26,28,32)

> <Ligand InChI Key>
VFZOOTFYENRGSL-UHFFFAOYSA-N

> <BindingDB MonomerID>
546404

> <BindingDB Ligand Name>
US11291655, No D9

> <Target Name>
DNA repair protein RAD51 homolog 1

> <Target Source Organism According to Curator or DataSource>
Homo sapiens

> <Ki (nM)>


> <IC50 (nM)>


> <Kd (nM)>


> <EC50 (nM)>
>10000

> <kon (M-1-s-1)>


> <koff (s-1)>


> <pH>


> <Temp C>


> <Curation/DataSource>
US Patent

> <Article DOI>


> <BindingDB Entry DOI>
10.7270/Q2NG4TV0

> <PMID>


> <PubChem AID>
aid1806421

> <Patent Number>
US11291655

> <Authors>
Castro, AC; McComas, CC; Vacca, J

> <Date of publication>
4/5/2022

> <Date in BindingDB>
7/21/2022

> <Institution>
Cyteir Therapeutics, Inc.

> <Link to Ligand in BindingDB>
http://www.bindingdb.org/bind/chemsearch/marvin/MolStructure.jsp?monomerid=546404

> <Link to Ligand-Target Pair in BindingDB>
http://www.bindingdb.org/jsp/dbsearch/PrimarySearch_ki.jsp?energyterm=kJ/mole&tag=pol&polymerid=4676&target=DNA+repair+protein+RAD51+homolog+1&column=ki&startPg=0&Increment=50&submit=Search

> <Link to Ligand-Target Pair in BindingDB>
http://www.bindingdb.org/jsp/dbsearch/PrimarySearch_ki.jsp?energyterm=kJ/mole&tag=r21&monomerid=546404&enzyme=DNA+repair+protein+RAD51+homolog+1&column=ki&startPg=0&Increment=50&submit=Search

> <Ligand HET ID in PDB>


> <PDB ID(s) for Ligand-Target Complex>


> <PubChem CID of Ligand>
137411769

> <PubChem SID of Ligand>
469681100

> <ChEBI ID of Ligand>


> <ChEMBL ID of Ligand>


> <DrugBank ID of Ligand>


> <IUPHAR_GRAC ID of Ligand>


> <KEGG ID of Ligand>


> <ZINC ID of Ligand>


> <Number of Protein Chains in Target (bigger than 1 implies a multichain complex)>
1

> <BindingDB Target Chain Sequence>
MAMQMQLEANADTSVEEESFGPQPISRLEQCGINANDVKKLEEAGFHTVEAVAYAPKKELINIKGISEAKADKILAEAAKLVPMGFTTATEFHQRRSEIIQITTGSKELDKLLQGGIETGSITEMFGEFRTGKTQICHTLAVTCQLPIDRGGGEGKAMYIDTEGTFRPERLLAVAERYGLSGSDVLDNVAYARAFNTDHQTQLLYQASAMMVESRYALLIVDSATALYRTDYSGRGELSARQMHLARFLRMLLRLADEFGVAVVITNQVVAQVDGAAMFAADPKKPIGGNIIAHASTTRLYLRKGRGETRICKIYDSPCLPEAEAMFAINADGVGDAKD

> <PDB ID(s) of Target Chain>
1N0W,5JZC,5NP7,5NWL,8BQ2,8BR2,8BSC

> <UniProt (SwissProt) Recommended Name of Target Chain>
DNA repair protein RAD51 homolog 1

> <UniProt (SwissProt) Entry Name of Target Chain>
RAD51_HUMAN

> <UniProt (SwissProt) Primary ID of Target Chain>
Q06609

> <UniProt (SwissProt) Secondary ID(s) of Target Chain>
B0FXP0 B2R8T6 Q6FHX9 Q6ZNA8 Q9BV60

> <UniProt (SwissProt) Alternative ID(s) of Target Chain>


> <UniProt (TrEMBL) Submitted Name of Target Chain>


> <UniProt (TrEMBL) Entry Name of Target Chain>


> <UniProt (TrEMBL) Primary ID of Target Chain>


> <UniProt (TrEMBL) Secondary ID(s) of Target Chain>


> <UniProt (TrEMBL) Alternative ID(s) of Target Chain>


$$$$
00264001.cdx
  Mrv0541 07212217012D          

 42 45  0  0  0  0            999 V2000
   -1.3131    0.3774    0.0000 C   0  0  0  0  0  0  0  0  0  0  0  0
   -2.0276    0.7899    0.0000 C   0  0  0  0  0  0  0  0  0  0  0  0
   -2.7421    0.3774    0.0000 C   0  0  0  0  0  0  0  0  0  0  0  0
   -2.7421   -0.4476    0.0000 C   0  0  0  0  0  0  0  0  0  0  0  0
   -2.0276   -0.8601    0.0000 C   0  0  0  0  0  0  0  0  0  0  0  0
   -1.3131   -0.4476    0.0000 C   0  0  0  0  0  0  0  0  0  0  0  0
   -3.4565   -0.8601    0.0000 N   0  0  0  0  0  0  0  0  0  0  0  0
   -4.1710   -0.4476    0.0000 S   0  0  0  0  0  0  0  0  0  0  0  0
   -0.5987   -0.8601    0.0000 S   0  0  0  0  0  0  0  0  0  0  0  0
    0.1158   -1.2726    0.0000 N   0  0  0  0  0  0  0  0  0  0  0  0
   -0.1862   -0.1456    0.0000 O   0  0  0  0  0  0  0  0  0  0  0  0
   -1.0112   -1.5745    0.0000 O   0  0  0  0  0  0  0  0  0  0  0  0
   -4.8855   -0.0351    0.0000 C   0  0  0  0  0  0  0  0  0  0  0  0
   -3.7585    0.2669    0.0000 O   0  0  0  0  0  0  0  0  0  0  0  0
   -4.5835   -1.1620    0.0000 O   0  0  0  0  0  0  0  0  0  0  0  0
   -4.8855    0.7899    0.0000 C   0  0  0  0  0  0  0  0  0  0  0  0
   -5.6000    1.2024    0.0000 C   0  0  0  0  0  0  0  0  0  0  0  0
   -6.3144    0.7899    0.0000 C   0  0  0  0  0  0  0  0  0  0  0  0
   -6.3144   -0.0351    0.0000 C   0  0  0  0  0  0  0  0  0  0  0  0
   -5.6000   -0.4476    0.0000 C   0  0  0  0  0  0  0  0  0  0  0  0
    0.8303   -0.8601    0.0000 C   0  0  0  0  0  0  0  0  0  0  0  0
    1.5447   -1.2726    0.0000 C   0  0  0  0  0  0  0  0  0  0  0  0
    0.8303   -0.0351    0.0000 C   0  0  0  0  0  0  0  0  0  0  0  0
    1.5447   -0.4476    0.0000 C   0  0  0  0  0  0  0  0  0  0  0  0
    0.4813    1.5745    0.0000 N   0  0  0  0  0  0  0  0  0  0  0  0
   -0.3437    1.5745    0.0000 C   0  0  0  0  0  0  0  0  0  0  0  0
   -0.5987    0.7899    0.0000 C   0  0  0  0  0  0  0  0  0  0  0  0
    0.0688    0.3050    0.0000 S   0  0  0  0  0  0  0  0  0  0  0  0
    0.7362    0.7899    0.0000 C   0  0  0  0  0  0  0  0  0  0  0  0
    1.5331    0.5764    0.0000 C   0  0  0  0  0  0  0  0  0  0  0  0
    1.7466   -0.2205    0.0000 C   0  0  0  0  0  0  0  0  0  0  0  0
    2.5435   -0.4340    0.0000 C   0  0  0  0  0  0  0  0  0  0  0  0
    3.1269    0.1493    0.0000 C   0  0  0  0  0  0  0  0  0  0  0  0
    2.9134    0.9462    0.0000 C   0  0  0  0  0  0  0  0  0  0  0  0
    2.1165    1.1598    0.0000 C   0  0  0  0  0  0  0  0  0  0  0  0
    3.9238   -0.0642    0.0000 N   0  0  0  0  0  0  0  0  0  0  0  0
    4.1373   -0.8611    0.0000 C   0  0  0  0  0  0  0  0  0  0  0  0
    4.9342   -1.0746    0.0000 O   0  0  0  0  0  0  0  0  0  0  0  0
    3.5539   -1.4444    0.0000 O   0  0  0  0  0  0  0  0  0  0  0  0
    5.5175   -0.4912    0.0000 C   0  0  0  0  0  0  0  0  0  0  0  0
    6.3144   -0.7048    0.0000 C   0  0  0  0  0  0  0  0  0  0  0  0
    5.3040    0.3057    0.0000 C   0  0  0  0  0  0  0  0  0  0  0  0
 27  1  1  0  0  0  0
  1  2  4  0  0  0  0
  2  3  4  0  0  0  0
  3  4  4  0  0  0  0
  4  5  4  0  0  0  0
  5  6  4  0  0  0  0
  6  1  4  0  0  0  0
  4  7  1  0  0  0  0
  7  8  1  0  0  0  0
  6  9  1  0  0  0  0
  9 10  1  0  0  0  0
  9 11  2  0  0  0  0
  9 12  2  0  0  0  0
  8 13  1  0  0  0  0
  8 14  2  0  0  0  0
  8 15  2  0  0  0  0
 13 16  4  0  0  0  0
 16 17  4  0  0  0  0
 17 18  4  0  0  0  0
 18 19  4  0  0  0  0
 19 20  4  0  0  0  0
 20 13  4  0  0  0  0
 10 21  1  0  0  0  0
 21 22  1  0  0  0  0
 21 23  1  0  0  0  0
 21 24  1  0  0  0  0
 25 26  4  0  0  0  0
 26 27  4  0  0  0  0
 27 28  4  0  0  0  0
 28 29  4  0  0  0  0
 29 25  4  0  0  0  0
 29 30  1  0  0  0  0
 30 31  4  0  0  0  0
 31 32  4  0  0  0  0
 32 33  4  0  0  0  0
 33 34  4  0  0  0  0
 34 35  4  0  0  0  0
 35 30  4  0  0  0  0
 33 36  1  0  0  0  0
 36 37  1  0  0  0  0
 37 38  1  0  0  0  0
 37 39  2  0  0  0  0
 38 40  1  0  0  0  0
 40 41  1  0  0  0  0
 40 42  1  0  0  0  0
M  END
> <From>
www.bindingDB.org

> <BindingDB Reactant_set_id>
1155254

> <Ligand InChI>
InChI=1S/C29H32N4O6S3/c1-19(2)39-28(34)31-21-13-11-20(12-14-21)27-30-18-25(40-27)24-16-15-22(17-26(24)42(37,38)33-29(3,4)5)32-41(35,36)23-9-7-6-8-10-23/h6-19,32-33H,1-5H3,(H,31,34)

> <Ligand InChI Key>
ZMWSASADUKAKSR-UHFFFAOYSA-N

> <BindingDB MonomerID>
546405

> <BindingDB Ligand Name>
US11291655, No E1

> <Target Name>
DNA repair protein RAD51 homolog 1

> <Target Source Organism According to Curator or DataSource>
Homo sapiens

> <Ki (nM)>


> <IC50 (nM)>


> <Kd (nM)>


> <EC50 (nM)>
>10000

> <kon (M-1-s-1)>


> <koff (s-1)>


> <pH>


> <Temp C>


> <Curation/DataSource>
US Patent

> <Article DOI>


> <BindingDB Entry DOI>
10.7270/Q2NG4TV0

> <PMID>


> <PubChem AID>
aid1806421

> <Patent Number>
US11291655

> <Authors>
Castro, AC; McComas, CC; Vacca, J

> <Date of publication>
4/5/2022

> <Date in BindingDB>
7/21/2022

> <Institution>
Cyteir Therapeutics, Inc.

> <Link to Ligand in BindingDB>
http://www.bindingdb.org/bind/chemsearch/marvin/MolStructure.jsp?monomerid=546405

> <Link to Ligand-Target Pair in BindingDB>
http://www.bindingdb.org/jsp/dbsearch/PrimarySearch_ki.jsp?energyterm=kJ/mole&tag=pol&polymerid=4676&target=DNA+repair+protein+RAD51+homolog+1&column=ki&startPg=0&Increment=50&submit=Search

> <Link to Ligand-Target Pair in BindingDB>
http://www.bindingdb.org/jsp/dbsearch/PrimarySearch_ki.jsp?energyterm=kJ/mole&tag=r21&monomerid=546405&enzyme=DNA+repair+protein+RAD51+homolog+1&column=ki&startPg=0&Increment=50&submit=Search

> <Ligand HET ID in PDB>


> <PDB ID(s) for Ligand-Target Complex>


> <PubChem CID of Ligand>
137411676

> <PubChem SID of Ligand>
469681101

> <ChEBI ID of Ligand>


> <ChEMBL ID of Ligand>


> <DrugBank ID of Ligand>


> <IUPHAR_GRAC ID of Ligand>


> <KEGG ID of Ligand>


> <ZINC ID of Ligand>


> <Number of Protein Chains in Target (bigger than 1 implies a multichain complex)>
1

> <BindingDB Target Chain Sequence>
MAMQMQLEANADTSVEEESFGPQPISRLEQCGINANDVKKLEEAGFHTVEAVAYAPKKELINIKGISEAKADKILAEAAKLVPMGFTTATEFHQRRSEIIQITTGSKELDKLLQGGIETGSITEMFGEFRTGKTQICHTLAVTCQLPIDRGGGEGKAMYIDTEGTFRPERLLAVAERYGLSGSDVLDNVAYARAFNTDHQTQLLYQASAMMVESRYALLIVDSATALYRTDYSGRGELSARQMHLARFLRMLLRLADEFGVAVVITNQVVAQVDGAAMFAADPKKPIGGNIIAHASTTRLYLRKGRGETRICKIYDSPCLPEAEAMFAINADGVGDAKD

> <PDB ID(s) of Target Chain>
1N0W,5JZC,5NP7,5NWL,8BQ2,8BR2,8BSC

> <UniProt (SwissProt) Recommended Name of Target Chain>
DNA repair protein RAD51 homolog 1

> <UniProt (SwissProt) Entry Name of Target Chain>
RAD51_HUMAN

> <UniProt (SwissProt) Primary ID of Target Chain>
Q06609

> <UniProt (SwissProt) Secondary ID(s) of Target Chain>
B0FXP0 B2R8T6 Q6FHX9 Q6ZNA8 Q9BV60

> <UniProt (SwissProt) Alternative ID(s) of Target Chain>


> <UniProt (TrEMBL) Submitted Name of Target Chain>


> <UniProt (TrEMBL) Entry Name of Target Chain>


> <UniProt (TrEMBL) Primary ID of Target Chain>


> <UniProt (TrEMBL) Secondary ID(s) of Target Chain>


> <UniProt (TrEMBL) Alternative ID(s) of Target Chain>


$$$$
00265001.cdx
  Mrv0541 07212217012D          

 36 38  0  0  0  0            999 V2000
   -1.3789    1.4437    0.0000 C   0  0  0  0  0  0  0  0  0  0  0  0
   -1.3789    0.6187    0.0000 C   0  0  0  0  0  0  0  0  0  0  0  0
   -0.5942    0.3638    0.0000 S   0  0  0  0  0  0  0  0  0  0  0  0
   -0.1093    1.0312    0.0000 C   0  0  0  0  0  0  0  0  0  0  0  0
   -0.5942    1.6987    0.0000 N   0  0  0  0  0  0  0  0  0  0  0  0
    0.7157    1.0312    0.0000 C   0  0  0  0  0  0  0  0  0  0  0  0
    1.1282    0.3168    0.0000 C   0  0  0  0  0  0  0  0  0  0  0  0
    1.9532    0.3168    0.0000 C   0  0  0  0  0  0  0  0  0  0  0  0
    2.3657    1.0312    0.0000 C   0  0  0  0  0  0  0  0  0  0  0  0
    1.9532    1.7457    0.0000 C   0  0  0  0  0  0  0  0  0  0  0  0
    1.1282    1.7457    0.0000 C   0  0  0  0  0  0  0  0  0  0  0  0
    3.1907    1.0312    0.0000 N   0  0  0  0  0  0  0  0  0  0  0  0
   -2.0933    0.2062    0.0000 C   0  0  0  0  0  0  0  0  0  0  0  0
   -2.8078    0.6187    0.0000 C   0  0  0  0  0  0  0  0  0  0  0  0
   -3.5223    0.2062    0.0000 C   0  0  0  0  0  0  0  0  0  0  0  0
   -3.5223   -0.6188    0.0000 C   0  0  0  0  0  0  0  0  0  0  0  0
   -2.8078   -1.0313    0.0000 C   0  0  0  0  0  0  0  0  0  0  0  0
   -2.0933   -0.6188    0.0000 C   0  0  0  0  0  0  0  0  0  0  0  0
   -4.2367   -1.0313    0.0000 N   0  0  0  0  0  0  0  0  0  0  0  0
   -4.9512   -0.6188    0.0000 C   0  0  0  0  0  0  0  0  0  0  0  0
   -5.6657   -1.0313    0.0000 C   0  0  0  0  0  0  0  0  0  0  0  0
   -4.9512    0.2062    0.0000 O   0  0  0  0  0  0  0  0  0  0  0  0
   -1.3789   -1.0313    0.0000 S   0  0  0  0  0  0  0  0  0  0  0  0
   -0.6644   -1.4438    0.0000 N   0  0  0  0  0  0  0  0  0  0  0  0
   -0.9664   -0.3168    0.0000 O   0  0  0  0  0  0  0  0  0  0  0  0
   -1.7914   -1.7457    0.0000 O   0  0  0  0  0  0  0  0  0  0  0  0
    3.6032    0.3168    0.0000 C   0  0  0  0  0  0  0  0  0  0  0  0
    4.4282    0.3168    0.0000 O   0  0  0  0  0  0  0  0  0  0  0  0
    3.1907   -0.3977    0.0000 O   0  0  0  0  0  0  0  0  0  0  0  0
    4.8407    1.0312    0.0000 C   0  0  0  0  0  0  0  0  0  0  0  0
    5.6657    1.0312    0.0000 C   0  0  0  0  0  0  0  0  0  0  0  0
    4.4282    1.7457    0.0000 C   0  0  0  0  0  0  0  0  0  0  0  0
    0.0501   -1.0313    0.0000 C   0  0  0  0  0  0  0  0  0  0  0  0
    0.7646   -1.4438    0.0000 C   0  0  0  0  0  0  0  0  0  0  0  0
    0.0501   -0.2063    0.0000 C   0  0  0  0  0  0  0  0  0  0  0  0
    0.7646   -0.6188    0.0000 C   0  0  0  0  0  0  0  0  0  0  0  0
  1  2  4  0  0  0  0
  2  3  4  0  0  0  0
  3  4  4  0  0  0  0
  4  5  4  0  0  0  0
  5  1  4  0  0  0  0
  4  6  1  0  0  0  0
  6  7  4  0  0  0  0
  7  8  4  0  0  0  0
  8  9  4  0  0  0  0
  9 10  4  0  0  0  0
 10 11  4  0  0  0  0
 11  6  4  0  0  0  0
  9 12  1  0  0  0  0
  2 13  1  0  0  0  0
 13 14  4  0  0  0  0
 14 15  4  0  0  0  0
 15 16  4  0  0  0  0
 16 17  4  0  0  0  0
 17 18  4  0  0  0  0
 18 13  4  0  0  0  0
 16 19  1  0  0  0  0
 19 20  1  0  0  0  0
 20 21  1  0  0  0  0
 20 22  2  0  0  0  0
 18 23  1  0  0  0  0
 23 24  1  0  0  0  0
 23 25  2  0  0  0  0
 23 26  2  0  0  0  0
 12 27  1  0  0  0  0
 27 28  1  0  0  0  0
 27 29  2  0  0  0  0
 28 30  1  0  0  0  0
 30 31  1  0  0  0  0
 30 32  1  0  0  0  0
 24 33  1  0  0  0  0
 33 34  1  0  0  0  0
 33 35  1  0  0  0  0
 33 36  1  0  0  0  0
M  END
> <From>
www.bindingDB.org

> <BindingDB Reactant_set_id>
1155255

> <Ligand InChI>
InChI=1S/C25H30N4O5S2/c1-15(2)34-24(31)28-18-9-7-17(8-10-18)23-26-14-21(35-23)20-12-11-19(27-16(3)30)13-22(20)36(32,33)29-25(4,5)6/h7-15,29H,1-6H3,(H,27,30)(H,28,31)

> <Ligand InChI Key>
FZFJILTZILWEEY-UHFFFAOYSA-N

> <BindingDB MonomerID>
546406

> <BindingDB Ligand Name>
US11291655, No E11

> <Target Name>
DNA repair protein RAD51 homolog 1

> <Target Source Organism According to Curator or DataSource>
Homo sapiens

> <Ki (nM)>


> <IC50 (nM)>


> <Kd (nM)>


> <EC50 (nM)>
<5000

> <kon (M-1-s-1)>


> <koff (s-1)>


> <pH>


> <Temp C>


> <Curation/DataSource>
US Patent

> <Article DOI>


> <BindingDB Entry DOI>
10.7270/Q2NG4TV0

> <PMID>


> <PubChem AID>
aid1806421

> <Patent Number>
US11291655

> <Authors>
Castro, AC; McComas, CC; Vacca, J

> <Date of publication>
4/5/2022

> <Date in BindingDB>
7/21/2022

> <Institution>
Cyteir Therapeutics, Inc.

> <Link to Ligand in BindingDB>
http://www.bindingdb.org/bind/chemsearch/marvin/MolStructure.jsp?monomerid=546406

> <Link to Ligand-Target Pair in BindingDB>
http://www.bindingdb.org/jsp/dbsearch/PrimarySearch_ki.jsp?energyterm=kJ/mole&tag=pol&polymerid=4676&target=DNA+repair+protein+RAD51+homolog+1&column=ki&startPg=0&Increment=50&submit=Search

> <Link to Ligand-Target Pair in BindingDB>
http://www.bindingdb.org/jsp/dbsearch/PrimarySearch_ki.jsp?energyterm=kJ/mole&tag=r21&monomerid=546406&enzyme=DNA+repair+protein+RAD51+homolog+1&column=ki&startPg=0&Increment=50&submit=Search

> <Ligand HET ID in PDB>


> <PDB ID(s) for Ligand-Target Complex>


> <PubChem CID of Ligand>
137408602

> <PubChem SID of Ligand>
469681102

> <ChEBI ID of Ligand>


> <ChEMBL ID of Ligand>


> <DrugBank ID of Ligand>


> <IUPHAR_GRAC ID of Ligand>


> <KEGG ID of Ligand>


> <ZINC ID of Ligand>


> <Number of Protein Chains in Target (bigger than 1 implies a multichain complex)>
1

> <BindingDB Target Chain Sequence>
MAMQMQLEANADTSVEEESFGPQPISRLEQCGINANDVKKLEEAGFHTVEAVAYAPKKELINIKGISEAKADKILAEAAKLVPMGFTTATEFHQRRSEIIQITTGSKELDKLLQGGIETGSITEMFGEFRTGKTQICHTLAVTCQLPIDRGGGEGKAMYIDTEGTFRPERLLAVAERYGLSGSDVLDNVAYARAFNTDHQTQLLYQASAMMVESRYALLIVDSATALYRTDYSGRGELSARQMHLARFLRMLLRLADEFGVAVVITNQVVAQVDGAAMFAADPKKPIGGNIIAHASTTRLYLRKGRGETRICKIYDSPCLPEAEAMFAINADGVGDAKD

> <PDB ID(s) of Target Chain>
1N0W,5JZC,5NP7,5NWL,8BQ2,8BR2,8BSC

> <UniProt (SwissProt) Recommended Name of Target Chain>
DNA repair protein RAD51 homolog 1

> <UniProt (SwissProt) Entry Name of Target Chain>
RAD51_HUMAN

> <UniProt (SwissProt) Primary ID of Target Chain>
Q06609

> <UniProt (SwissProt) Secondary ID(s) of Target Chain>
B0FXP0 B2R8T6 Q6FHX9 Q6ZNA8 Q9BV60

> <UniProt (SwissProt) Alternative ID(s) of Target Chain>


> <UniProt (TrEMBL) Submitted Name of Target Chain>


> <UniProt (TrEMBL) Entry Name of Target Chain>


> <UniProt (TrEMBL) Primary ID of Target Chain>


> <UniProt (TrEMBL) Secondary ID(s) of Target Chain>


> <UniProt (TrEMBL) Alternative ID(s) of Target Chain>


$$$$
00266001.cdx
  Mrv0541 07212217012D          

 32 35  0  0  0  0            999 V2000
    1.2442    1.9858    0.0000 N   0  0  0  0  0  0  0  0  0  0  0  0
    0.4192    1.9858    0.0000 C   0  0  0  0  0  0  0  0  0  0  0  0
    0.1642    1.2011    0.0000 C   0  0  0  0  0  0  0  0  0  0  0  0
    0.8317    0.7162    0.0000 S   0  0  0  0  0  0  0  0  0  0  0  0
    1.4991    1.2011    0.0000 C   0  0  0  0  0  0  0  0  0  0  0  0
   -0.6327    0.9876    0.0000 C   0  0  0  0  0  0  0  0  0  0  0  0
   -1.2160    1.5710    0.0000 C   0  0  0  0  0  0  0  0  0  0  0  0
   -2.0129    1.3574    0.0000 C   0  0  0  0  0  0  0  0  0  0  0  0
   -2.2265    0.5606    0.0000 C   0  0  0  0  0  0  0  0  0  0  0  0
   -1.6431   -0.0228    0.0000 C   0  0  0  0  0  0  0  0  0  0  0  0
   -0.8462    0.1907    0.0000 C   0  0  0  0  0  0  0  0  0  0  0  0
    2.2960    0.9876    0.0000 C   0  0  0  0  0  0  0  0  0  0  0  0
    2.5095    0.1907    0.0000 C   0  0  0  0  0  0  0  0  0  0  0  0
    3.3064   -0.0228    0.0000 C   0  0  0  0  0  0  0  0  0  0  0  0
    3.8898    0.5606    0.0000 C   0  0  0  0  0  0  0  0  0  0  0  0
    3.6762    1.3574    0.0000 C   0  0  0  0  0  0  0  0  0  0  0  0
    2.8793    1.5710    0.0000 C   0  0  0  0  0  0  0  0  0  0  0  0
    4.6866    0.3470    0.0000 N   0  0  0  0  0  0  0  0  0  0  0  0
   -0.2628   -0.3926    0.0000 S   0  0  0  0  0  0  0  0  0  0  0  0
   -0.4764   -1.1895    0.0000 N   0  0  0  0  0  0  0  0  0  0  0  0
    0.4522   -0.8051    0.0000 O   0  0  0  0  0  0  0  0  0  0  0  0
    0.4522    0.0199    0.0000 O   0  0  0  0  0  0  0  0  0  0  0  0
   -1.2733   -1.4031    0.0000 C   0  0  0  0  0  0  0  0  0  0  0  0
   -1.4868   -2.1999    0.0000 C   0  0  0  0  0  0  0  0  0  0  0  0
   -1.8566   -0.8197    0.0000 C   0  0  0  0  0  0  0  0  0  0  0  0
   -2.0701   -1.6166    0.0000 C   0  0  0  0  0  0  0  0  0  0  0  0
   -3.0233    0.3470    0.0000 N   0  0  0  0  0  0  0  0  0  0  0  0
   -4.4317    0.9304    0.0000 S   0  0  0  0  0  0  0  0  0  0  0  0
   -3.6067    0.9304    0.0000 C   0  0  0  0  0  0  0  0  0  0  0  0
   -3.3518    1.7150    0.0000 N   0  0  0  0  0  0  0  0  0  0  0  0
   -4.0192    2.1999    0.0000 C   0  0  0  0  0  0  0  0  0  0  0  0
   -4.6866    1.7150    0.0000 C   0  0  0  0  0  0  0  0  0  0  0  0
  1  2  4  0  0  0  0
  2  3  4  0  0  0  0
  3  4  4  0  0  0  0
  4  5  4  0  0  0  0
  5  1  4  0  0  0  0
  3  6  1  0  0  0  0
  6  7  4  0  0  0  0
  7  8  4  0  0  0  0
  8  9  4  0  0  0  0
  9 10  4  0  0  0  0
 10 11  4  0  0  0  0
 11  6  4  0  0  0  0
  5 12  1  0  0  0  0
 12 13  4  0  0  0  0
 13 14  4  0  0  0  0
 14 15  4  0  0  0  0
 15 16  4  0  0  0  0
 16 17  4  0  0  0  0
 17 12  4  0  0  0  0
 15 18  1  0  0  0  0
 11 19  1  0  0  0  0
 19 20  1  0  0  0  0
 19 21  2  0  0  0  0
 22 19  2  0  0  0  0
 20 23  1  0  0  0  0
 23 24  1  0  0  0  0
 23 25  1  0  0  0  0
 23 26  1  0  0  0  0
  9 27  1  0  0  0  0
 27 29  1  0  0  0  0
 28 29  4  0  0  0  0
 29 30  4  0  0  0  0
 30 31  4  0  0  0  0
 31 32  4  0  0  0  0
 32 28  4  0  0  0  0
M  END
> <From>
www.bindingDB.org

> <BindingDB Reactant_set_id>
1155256

> <Ligand InChI>
InChI=1S/C22H23N5O2S3/c1-22(2,3)27-32(28,29)19-12-16(26-21-24-10-11-30-21)8-9-17(19)18-13-25-20(31-18)14-4-6-15(23)7-5-14/h4-13,27H,23H2,1-3H3,(H,24,26)

> <Ligand InChI Key>
KYWAQBRPONJXIN-UHFFFAOYSA-N

> <BindingDB MonomerID>
546407

> <BindingDB Ligand Name>
US11291655, No E12

> <Target Name>
DNA repair protein RAD51 homolog 1

> <Target Source Organism According to Curator or DataSource>
Homo sapiens

> <Ki (nM)>


> <IC50 (nM)>


> <Kd (nM)>


> <EC50 (nM)>
>10000

> <kon (M-1-s-1)>


> <koff (s-1)>


> <pH>


> <Temp C>


> <Curation/DataSource>
US Patent

> <Article DOI>


> <BindingDB Entry DOI>
10.7270/Q2NG4TV0

> <PMID>


> <PubChem AID>
aid1806421

> <Patent Number>
US11291655

> <Authors>
Castro, AC; McComas, CC; Vacca, J

> <Date of publication>
4/5/2022

> <Date in BindingDB>
7/21/2022

> <Institution>
Cyteir Therapeutics, Inc.

> <Link to Ligand in BindingDB>
http://www.bindingdb.org/bind/chemsearch/marvin/MolStructure.jsp?monomerid=546407

> <Link to Ligand-Target Pair in BindingDB>
http://www.bindingdb.org/jsp/dbsearch/PrimarySearch_ki.jsp?energyterm=kJ/mole&tag=pol&polymerid=4676&target=DNA+repair+protein+RAD51+homolog+1&column=ki&startPg=0&Increment=50&submit=Search

> <Link to Ligand-Target Pair in BindingDB>
http://www.bindingdb.org/jsp/dbsearch/PrimarySearch_ki.jsp?energyterm=kJ/mole&tag=r21&monomerid=546407&enzyme=DNA+repair+protein+RAD51+homolog+1&column=ki&startPg=0&Increment=50&submit=Search

> <Ligand HET ID in PDB>


> <PDB ID(s) for Ligand-Target Complex>


> <PubChem CID of Ligand>
137411687

> <PubChem SID of Ligand>
469681103

> <ChEBI ID of Ligand>


> <ChEMBL ID of Ligand>


> <DrugBank ID of Ligand>


> <IUPHAR_GRAC ID of Ligand>


> <KEGG ID of Ligand>


> <ZINC ID of Ligand>


> <Number of Protein Chains in Target (bigger than 1 implies a multichain complex)>
1

> <BindingDB Target Chain Sequence>
MAMQMQLEANADTSVEEESFGPQPISRLEQCGINANDVKKLEEAGFHTVEAVAYAPKKELINIKGISEAKADKILAEAAKLVPMGFTTATEFHQRRSEIIQITTGSKELDKLLQGGIETGSITEMFGEFRTGKTQICHTLAVTCQLPIDRGGGEGKAMYIDTEGTFRPERLLAVAERYGLSGSDVLDNVAYARAFNTDHQTQLLYQASAMMVESRYALLIVDSATALYRTDYSGRGELSARQMHLARFLRMLLRLADEFGVAVVITNQVVAQVDGAAMFAADPKKPIGGNIIAHASTTRLYLRKGRGETRICKIYDSPCLPEAEAMFAINADGVGDAKD

> <PDB ID(s) of Target Chain>
1N0W,5JZC,5NP7,5NWL,8BQ2,8BR2,8BSC

> <UniProt (SwissProt) Recommended Name of Target Chain>
DNA repair protein RAD51 homolog 1

> <UniProt (SwissProt) Entry Name of Target Chain>
RAD51_HUMAN

> <UniProt (SwissProt) Primary ID of Target Chain>
Q06609

> <UniProt (SwissProt) Secondary ID(s) of Target Chain>
B0FXP0 B2R8T6 Q6FHX9 Q6ZNA8 Q9BV60

> <UniProt (SwissProt) Alternative ID(s) of Target Chain>


> <UniProt (TrEMBL) Submitted Name of Target Chain>


> <UniProt (TrEMBL) Entry Name of Target Chain>


> <UniProt (TrEMBL) Primary ID of Target Chain>


> <UniProt (TrEMBL) Secondary ID(s) of Target Chain>


> <UniProt (TrEMBL) Alternative ID(s) of Target Chain>


$$$$
00267001.cdx
  Mrv0541 07212217012D          

 31 33  0  0  0  0            999 V2000
    1.1026    2.0929    0.0000 N   0  0  0  0  0  0  0  0  0  0  0  0
    0.2776    2.0929    0.0000 C   0  0  0  0  0  0  0  0  0  0  0  0
    0.0227    1.3082    0.0000 C   0  0  0  0  0  0  0  0  0  0  0  0
    0.6901    0.8233    0.0000 S   0  0  0  0  0  0  0  0  0  0  0  0
    1.3576    1.3082    0.0000 C   0  0  0  0  0  0  0  0  0  0  0  0
   -0.7742    1.0947    0.0000 C   0  0  0  0  0  0  0  0  0  0  0  0
   -1.3576    1.6781    0.0000 C   0  0  0  0  0  0  0  0  0  0  0  0
   -2.1545    1.4645    0.0000 C   0  0  0  0  0  0  0  0  0  0  0  0
   -2.3680    0.6677    0.0000 C   0  0  0  0  0  0  0  0  0  0  0  0
   -1.7846    0.0843    0.0000 C   0  0  0  0  0  0  0  0  0  0  0  0
   -0.9877    0.2978    0.0000 C   0  0  0  0  0  0  0  0  0  0  0  0
   -3.1649    0.4541    0.0000 N   0  0  0  0  0  0  0  0  0  0  0  0
   -3.7482    1.0375    0.0000 C   0  0  0  0  0  0  0  0  0  0  0  0
   -3.3784   -0.3428    0.0000 C   0  0  0  0  0  0  0  0  0  0  0  0
   -4.5451    0.8240    0.0000 C   0  0  0  0  0  0  0  0  0  0  0  0
   -3.5347    1.8344    0.0000 O   0  0  0  0  0  0  0  0  0  0  0  0
   -0.4044   -0.2855    0.0000 S   0  0  0  0  0  0  0  0  0  0  0  0
   -0.6179   -1.0824    0.0000 N   0  0  0  0  0  0  0  0  0  0  0  0
    0.3925   -0.4991    0.0000 O   0  0  0  0  0  0  0  0  0  0  0  0
    0.1790    0.2978    0.0000 O   0  0  0  0  0  0  0  0  0  0  0  0
   -1.4148   -1.2960    0.0000 C   0  0  0  0  0  0  0  0  0  0  0  0
   -1.6283   -2.0929    0.0000 C   0  0  0  0  0  0  0  0  0  0  0  0
   -1.9981   -0.7126    0.0000 C   0  0  0  0  0  0  0  0  0  0  0  0
   -2.2117   -1.5095    0.0000 C   0  0  0  0  0  0  0  0  0  0  0  0
    2.1545    1.0947    0.0000 C   0  0  0  0  0  0  0  0  0  0  0  0
    2.3680    0.2978    0.0000 C   0  0  0  0  0  0  0  0  0  0  0  0
    3.1649    0.0843    0.0000 C   0  0  0  0  0  0  0  0  0  0  0  0
    3.7482    0.6677    0.0000 C   0  0  0  0  0  0  0  0  0  0  0  0
    3.5347    1.4645    0.0000 C   0  0  0  0  0  0  0  0  0  0  0  0
    2.7378    1.6781    0.0000 C   0  0  0  0  0  0  0  0  0  0  0  0
    4.5451    0.4541    0.0000 N   0  0  0  0  0  0  0  0  0  0  0  0
  1  2  4  0  0  0  0
  2  3  4  0  0  0  0
  3  4  4  0  0  0  0
  4  5  4  0  0  0  0
  5  1  4  0  0  0  0
  3  6  1  0  0  0  0
  6  7  4  0  0  0  0
  7  8  4  0  0  0  0
  8  9  4  0  0  0  0
  9 10  4  0  0  0  0
 10 11  4  0  0  0  0
 11  6  4  0  0  0  0
  9 12  1  0  0  0  0
 12 13  1  0  0  0  0
 12 14  1  0  0  0  0
 13 15  1  0  0  0  0
 13 16  2  0  0  0  0
 11 17  1  0  0  0  0
 17 18  1  0  0  0  0
 17 19  2  0  0  0  0
 20 17  2  0  0  0  0
 18 21  1  0  0  0  0
 21 22  1  0  0  0  0
 21 23  1  0  0  0  0
 21 24  1  0  0  0  0
  5 25  1  0  0  0  0
 25 26  4  0  0  0  0
 26 27  4  0  0  0  0
 27 28  4  0  0  0  0
 28 29  4  0  0  0  0
 29 30  4  0  0  0  0
 30 25  4  0  0  0  0
 28 31  1  0  0  0  0
M  END
> <From>
www.bindingDB.org

> <BindingDB Reactant_set_id>
1155257

> <Ligand InChI>
InChI=1S/C22H26N4O3S2/c1-14(27)26(5)17-10-11-18(20(12-17)31(28,29)25-22(2,3)4)19-13-24-21(30-19)15-6-8-16(23)9-7-15/h6-13,25H,23H2,1-5H3

> <Ligand InChI Key>
NIOZCMJDBRQNQV-UHFFFAOYSA-N

> <BindingDB MonomerID>
546408

> <BindingDB Ligand Name>
US11291655, No E14

> <Target Name>
DNA repair protein RAD51 homolog 1

> <Target Source Organism According to Curator or DataSource>
Homo sapiens

> <Ki (nM)>


> <IC50 (nM)>


> <Kd (nM)>


> <EC50 (nM)>
>10000

> <kon (M-1-s-1)>


> <koff (s-1)>


> <pH>


> <Temp C>


> <Curation/DataSource>
US Patent

> <Article DOI>


> <BindingDB Entry DOI>
10.7270/Q2NG4TV0

> <PMID>


> <PubChem AID>
aid1806421

> <Patent Number>
US11291655

> <Authors>
Castro, AC; McComas, CC; Vacca, J

> <Date of publication>
4/5/2022

> <Date in BindingDB>
7/21/2022

> <Institution>
Cyteir Therapeutics, Inc.

> <Link to Ligand in BindingDB>
http://www.bindingdb.org/bind/chemsearch/marvin/MolStructure.jsp?monomerid=546408

> <Link to Ligand-Target Pair in BindingDB>
http://www.bindingdb.org/jsp/dbsearch/PrimarySearch_ki.jsp?energyterm=kJ/mole&tag=pol&polymerid=4676&target=DNA+repair+protein+RAD51+homolog+1&column=ki&startPg=0&Increment=50&submit=Search

> <Link to Ligand-Target Pair in BindingDB>
http://www.bindingdb.org/jsp/dbsearch/PrimarySearch_ki.jsp?energyterm=kJ/mole&tag=r21&monomerid=546408&enzyme=DNA+repair+protein+RAD51+homolog+1&column=ki&startPg=0&Increment=50&submit=Search

> <Ligand HET ID in PDB>


> <PDB ID(s) for Ligand-Target Complex>


> <PubChem CID of Ligand>
137411849

> <PubChem SID of Ligand>
469681104

> <ChEBI ID of Ligand>


> <ChEMBL ID of Ligand>


> <DrugBank ID of Ligand>


> <IUPHAR_GRAC ID of Ligand>


> <KEGG ID of Ligand>


> <ZINC ID of Ligand>


> <Number of Protein Chains in Target (bigger than 1 implies a multichain complex)>
1

> <BindingDB Target Chain Sequence>
MAMQMQLEANADTSVEEESFGPQPISRLEQCGINANDVKKLEEAGFHTVEAVAYAPKKELINIKGISEAKADKILAEAAKLVPMGFTTATEFHQRRSEIIQITTGSKELDKLLQGGIETGSITEMFGEFRTGKTQICHTLAVTCQLPIDRGGGEGKAMYIDTEGTFRPERLLAVAERYGLSGSDVLDNVAYARAFNTDHQTQLLYQASAMMVESRYALLIVDSATALYRTDYSGRGELSARQMHLARFLRMLLRLADEFGVAVVITNQVVAQVDGAAMFAADPKKPIGGNIIAHASTTRLYLRKGRGETRICKIYDSPCLPEAEAMFAINADGVGDAKD

> <PDB ID(s) of Target Chain>
1N0W,5JZC,5NP7,5NWL,8BQ2,8BR2,8BSC

> <UniProt (SwissProt) Recommended Name of Target Chain>
DNA repair protein RAD51 homolog 1

> <UniProt (SwissProt) Entry Name of Target Chain>
RAD51_HUMAN

> <UniProt (SwissProt) Primary ID of Target Chain>
Q06609

> <UniProt (SwissProt) Secondary ID(s) of Target Chain>
B0FXP0 B2R8T6 Q6FHX9 Q6ZNA8 Q9BV60

> <UniProt (SwissProt) Alternative ID(s) of Target Chain>


> <UniProt (TrEMBL) Submitted Name of Target Chain>


> <UniProt (TrEMBL) Entry Name of Target Chain>


> <UniProt (TrEMBL) Primary ID of Target Chain>


> <UniProt (TrEMBL) Secondary ID(s) of Target Chain>


> <UniProt (TrEMBL) Alternative ID(s) of Target Chain>


$$$$
00268001.cdx
  Mrv0541 07212217012D          

 37 39  0  0  0  0            999 V2000
   -0.0927    2.0929    0.0000 N   0  0  0  0  0  0  0  0  0  0  0  0
   -0.9177    2.0929    0.0000 C   0  0  0  0  0  0  0  0  0  0  0  0
   -1.1726    1.3082    0.0000 C   0  0  0  0  0  0  0  0  0  0  0  0
   -0.5052    0.8233    0.0000 S   0  0  0  0  0  0  0  0  0  0  0  0
    0.1622    1.3082    0.0000 C   0  0  0  0  0  0  0  0  0  0  0  0
   -1.9695    1.0947    0.0000 C   0  0  0  0  0  0  0  0  0  0  0  0
   -2.5529    1.6781    0.0000 C   0  0  0  0  0  0  0  0  0  0  0  0
   -3.3498    1.4645    0.0000 C   0  0  0  0  0  0  0  0  0  0  0  0
   -3.5633    0.6677    0.0000 C   0  0  0  0  0  0  0  0  0  0  0  0
   -2.9799    0.0843    0.0000 C   0  0  0  0  0  0  0  0  0  0  0  0
   -2.1831    0.2978    0.0000 C   0  0  0  0  0  0  0  0  0  0  0  0
   -4.3602    0.4541    0.0000 N   0  0  0  0  0  0  0  0  0  0  0  0
   -4.9436    1.0375    0.0000 C   0  0  0  0  0  0  0  0  0  0  0  0
   -4.5737   -0.3428    0.0000 C   0  0  0  0  0  0  0  0  0  0  0  0
   -5.7405    0.8240    0.0000 C   0  0  0  0  0  0  0  0  0  0  0  0
   -4.7300    1.8344    0.0000 O   0  0  0  0  0  0  0  0  0  0  0  0
   -1.5997   -0.2855    0.0000 S   0  0  0  0  0  0  0  0  0  0  0  0
   -1.8132   -1.0824    0.0000 N   0  0  0  0  0  0  0  0  0  0  0  0
   -0.8028   -0.4991    0.0000 O   0  0  0  0  0  0  0  0  0  0  0  0
   -1.0163    0.2978    0.0000 O   0  0  0  0  0  0  0  0  0  0  0  0
   -2.6101   -1.2960    0.0000 C   0  0  0  0  0  0  0  0  0  0  0  0
   -2.8236   -2.0929    0.0000 C   0  0  0  0  0  0  0  0  0  0  0  0
   -3.1935   -0.7126    0.0000 C   0  0  0  0  0  0  0  0  0  0  0  0
   -3.4070   -1.5095    0.0000 C   0  0  0  0  0  0  0  0  0  0  0  0
    0.9591    1.0947    0.0000 C   0  0  0  0  0  0  0  0  0  0  0  0
    1.1726    0.2978    0.0000 C   0  0  0  0  0  0  0  0  0  0  0  0
    1.9695    0.0843    0.0000 C   0  0  0  0  0  0  0  0  0  0  0  0
    2.5529    0.6677    0.0000 C   0  0  0  0  0  0  0  0  0  0  0  0
    2.3394    1.4645    0.0000 C   0  0  0  0  0  0  0  0  0  0  0  0
    1.5425    1.6781    0.0000 C   0  0  0  0  0  0  0  0  0  0  0  0
    3.3498    0.4541    0.0000 N   0  0  0  0  0  0  0  0  0  0  0  0
    3.5633   -0.3428    0.0000 C   0  0  0  0  0  0  0  0  0  0  0  0
    4.3602   -0.5563    0.0000 N   0  0  0  0  0  0  0  0  0  0  0  0
    2.9800   -0.9261    0.0000 S   0  0  0  0  0  0  0  0  0  0  0  0
    4.9436    0.0271    0.0000 C   0  0  0  0  0  0  0  0  0  0  0  0
    5.7405   -0.1864    0.0000 C   0  0  0  0  0  0  0  0  0  0  0  0
    4.7300    0.8240    0.0000 C   0  0  0  0  0  0  0  0  0  0  0  0
  1  2  4  0  0  0  0
  2  3  4  0  0  0  0
  3  4  4  0  0  0  0
  4  5  4  0  0  0  0
  5  1  4  0  0  0  0
  3  6  1  0  0  0  0
  6  7  4  0  0  0  0
  7  8  4  0  0  0  0
  8  9  4  0  0  0  0
  9 10  4  0  0  0  0
 10 11  4  0  0  0  0
 11  6  4  0  0  0  0
  9 12  1  0  0  0  0
 12 13  1  0  0  0  0
 12 14  1  0  0  0  0
 13 15  1  0  0  0  0
 13 16  2  0  0  0  0
 11 17  1  0  0  0  0
 17 18  1  0  0  0  0
 17 19  2  0  0  0  0
 20 17  2  0  0  0  0
 18 21  1  0  0  0  0
 21 22  1  0  0  0  0
 21 23  1  0  0  0  0
 21 24  1  0  0  0  0
  5 25  1  0  0  0  0
 25 26  4  0  0  0  0
 26 27  4  0  0  0  0
 27 28  4  0  0  0  0
 28 29  4  0  0  0  0
 29 30  4  0  0  0  0
 30 25  4  0  0  0  0
 28 31  1  0  0  0  0
 31 32  1  0  0  0  0
 32 33  1  0  0  0  0
 32 34  2  0  0  0  0
 33 35  1  0  0  0  0
 35 36  1  0  0  0  0
 35 37  1  0  0  0  0
M  END
> <From>
www.bindingDB.org

> <BindingDB Reactant_set_id>
1155258

> <Ligand InChI>
InChI=1S/C26H33N5O3S3/c1-16(2)28-25(35)29-19-10-8-18(9-11-19)24-27-15-22(36-24)21-13-12-20(31(7)17(3)32)14-23(21)37(33,34)30-26(4,5)6/h8-16,30H,1-7H3,(H2,28,29,35)

> <Ligand InChI Key>
KBVKYNTYFOTXLF-UHFFFAOYSA-N

> <BindingDB MonomerID>
546409

> <BindingDB Ligand Name>
US11291655, No E15

> <Target Name>
DNA repair protein RAD51 homolog 1

> <Target Source Organism According to Curator or DataSource>
Homo sapiens

> <Ki (nM)>


> <IC50 (nM)>


> <Kd (nM)>


> <EC50 (nM)>
>10000

> <kon (M-1-s-1)>


> <koff (s-1)>


> <pH>


> <Temp C>


> <Curation/DataSource>
US Patent

> <Article DOI>


> <BindingDB Entry DOI>
10.7270/Q2NG4TV0

> <PMID>


> <PubChem AID>
aid1806421

> <Patent Number>
US11291655

> <Authors>
Castro, AC; McComas, CC; Vacca, J

> <Date of publication>
4/5/2022

> <Date in BindingDB>
7/21/2022

> <Institution>
Cyteir Therapeutics, Inc.

> <Link to Ligand in BindingDB>
http://www.bindingdb.org/bind/chemsearch/marvin/MolStructure.jsp?monomerid=546409

> <Link to Ligand-Target Pair in BindingDB>
http://www.bindingdb.org/jsp/dbsearch/PrimarySearch_ki.jsp?energyterm=kJ/mole&tag=pol&polymerid=4676&target=DNA+repair+protein+RAD51+homolog+1&column=ki&startPg=0&Increment=50&submit=Search

> <Link to Ligand-Target Pair in BindingDB>
http://www.bindingdb.org/jsp/dbsearch/PrimarySearch_ki.jsp?energyterm=kJ/mole&tag=r21&monomerid=546409&enzyme=DNA+repair+protein+RAD51+homolog+1&column=ki&startPg=0&Increment=50&submit=Search

> <Ligand HET ID in PDB>


> <PDB ID(s) for Ligand-Target Complex>


> <PubChem CID of Ligand>
137411850

> <PubChem SID of Ligand>
469681105

> <ChEBI ID of Ligand>


> <ChEMBL ID of Ligand>


> <DrugBank ID of Ligand>


> <IUPHAR_GRAC ID of Ligand>


> <KEGG ID of Ligand>


> <ZINC ID of Ligand>


> <Number of Protein Chains in Target (bigger than 1 implies a multichain complex)>
1

> <BindingDB Target Chain Sequence>
MAMQMQLEANADTSVEEESFGPQPISRLEQCGINANDVKKLEEAGFHTVEAVAYAPKKELINIKGISEAKADKILAEAAKLVPMGFTTATEFHQRRSEIIQITTGSKELDKLLQGGIETGSITEMFGEFRTGKTQICHTLAVTCQLPIDRGGGEGKAMYIDTEGTFRPERLLAVAERYGLSGSDVLDNVAYARAFNTDHQTQLLYQASAMMVESRYALLIVDSATALYRTDYSGRGELSARQMHLARFLRMLLRLADEFGVAVVITNQVVAQVDGAAMFAADPKKPIGGNIIAHASTTRLYLRKGRGETRICKIYDSPCLPEAEAMFAINADGVGDAKD

> <PDB ID(s) of Target Chain>
1N0W,5JZC,5NP7,5NWL,8BQ2,8BR2,8BSC

> <UniProt (SwissProt) Recommended Name of Target Chain>
DNA repair protein RAD51 homolog 1

> <UniProt (SwissProt) Entry Name of Target Chain>
RAD51_HUMAN

> <UniProt (SwissProt) Primary ID of Target Chain>
Q06609

> <UniProt (SwissProt) Secondary ID(s) of Target Chain>
B0FXP0 B2R8T6 Q6FHX9 Q6ZNA8 Q9BV60

> <UniProt (SwissProt) Alternative ID(s) of Target Chain>


> <UniProt (TrEMBL) Submitted Name of Target Chain>


> <UniProt (TrEMBL) Entry Name of Target Chain>


> <UniProt (TrEMBL) Primary ID of Target Chain>


> <UniProt (TrEMBL) Secondary ID(s) of Target Chain>


> <UniProt (TrEMBL) Alternative ID(s) of Target Chain>


$$$$
00269001.cdx
  Mrv0541 07212217012D          

 33 36  0  0  0  0            999 V2000
    1.3229    1.9858    0.0000 N   0  0  0  0  0  0  0  0  0  0  0  0
    0.4979    1.9858    0.0000 C   0  0  0  0  0  0  0  0  0  0  0  0
    0.2430    1.2011    0.0000 C   0  0  0  0  0  0  0  0  0  0  0  0
    0.9104    0.7162    0.0000 S   0  0  0  0  0  0  0  0  0  0  0  0
    1.5779    1.2011    0.0000 C   0  0  0  0  0  0  0  0  0  0  0  0
   -0.5539    0.9876    0.0000 C   0  0  0  0  0  0  0  0  0  0  0  0
   -1.1373    1.5710    0.0000 C   0  0  0  0  0  0  0  0  0  0  0  0
   -1.9341    1.3574    0.0000 C   0  0  0  0  0  0  0  0  0  0  0  0
   -2.1477    0.5606    0.0000 C   0  0  0  0  0  0  0  0  0  0  0  0
   -1.5643   -0.0228    0.0000 C   0  0  0  0  0  0  0  0  0  0  0  0
   -0.7674    0.1907    0.0000 C   0  0  0  0  0  0  0  0  0  0  0  0
   -2.9446    0.3470    0.0000 N   0  0  0  0  0  0  0  0  0  0  0  0
   -0.1841   -0.3926    0.0000 S   0  0  0  0  0  0  0  0  0  0  0  0
   -0.3976   -1.1895    0.0000 N   0  0  0  0  0  0  0  0  0  0  0  0
    0.6128   -0.6062    0.0000 O   0  0  0  0  0  0  0  0  0  0  0  0
    0.3993    0.1907    0.0000 O   0  0  0  0  0  0  0  0  0  0  0  0
   -1.1945   -1.4031    0.0000 C   0  0  0  0  0  0  0  0  0  0  0  0
   -1.4080   -2.1999    0.0000 C   0  0  0  0  0  0  0  0  0  0  0  0
   -1.7778   -0.8197    0.0000 C   0  0  0  0  0  0  0  0  0  0  0  0
   -1.9914   -1.6166    0.0000 C   0  0  0  0  0  0  0  0  0  0  0  0
    2.3748    0.9876    0.0000 C   0  0  0  0  0  0  0  0  0  0  0  0
    2.5883    0.1907    0.0000 C   0  0  0  0  0  0  0  0  0  0  0  0
    3.3852   -0.0228    0.0000 C   0  0  0  0  0  0  0  0  0  0  0  0
    3.9685    0.5606    0.0000 C   0  0  0  0  0  0  0  0  0  0  0  0
    3.7550    1.3574    0.0000 C   0  0  0  0  0  0  0  0  0  0  0  0
    2.9581    1.5710    0.0000 C   0  0  0  0  0  0  0  0  0  0  0  0
    4.7654    0.3470    0.0000 N   0  0  0  0  0  0  0  0  0  0  0  0
   -4.3529    0.9304    0.0000 N   0  0  0  0  0  0  0  0  0  0  0  0
   -3.5279    0.9304    0.0000 C   0  0  0  0  0  0  0  0  0  0  0  0
   -3.2730    1.7150    0.0000 N   0  0  0  0  0  0  0  0  0  0  0  0
   -3.9404    2.1999    0.0000 C   0  0  0  0  0  0  0  0  0  0  0  0
   -4.6079    1.7150    0.0000 C   0  0  0  0  0  0  0  0  0  0  0  0
   -4.7654    0.2159    0.0000 C   0  0  0  0  0  0  0  0  0  0  0  0
  1  2  4  0  0  0  0
  2  3  4  0  0  0  0
  3  4  4  0  0  0  0
  4  5  4  0  0  0  0
  5  1  4  0  0  0  0
  3  6  1  0  0  0  0
  6  7  4  0  0  0  0
  7  8  4  0  0  0  0
  8  9  4  0  0  0  0
  9 10  4  0  0  0  0
 10 11  4  0  0  0  0
 11  6  4  0  0  0  0
  9 12  1  0  0  0  0
 12 29  1  0  0  0  0
 11 13  1  0  0  0  0
 13 14  1  0  0  0  0
 13 15  2  0  0  0  0
 16 13  2  0  0  0  0
 14 17  1  0  0  0  0
 17 18  1  0  0  0  0
 17 19  1  0  0  0  0
 17 20  1  0  0  0  0
  5 21  1  0  0  0  0
 21 22  4  0  0  0  0
 22 23  4  0  0  0  0
 23 24  4  0  0  0  0
 24 25  4  0  0  0  0
 25 26  4  0  0  0  0
 26 21  4  0  0  0  0
 24 27  1  0  0  0  0
 28 29  4  0  0  0  0
 29 30  4  0  0  0  0
 30 31  4  0  0  0  0
 31 32  4  0  0  0  0
 32 28  4  0  0  0  0
 28 33  1  0  0  0  0
M  END
> <From>
www.bindingDB.org

> <BindingDB Reactant_set_id>
1155259

> <Ligand InChI>
InChI=1S/C23H26N6O2S2/c1-23(2,3)28-33(30,31)20-13-17(27-22-25-11-12-29(22)4)9-10-18(20)19-14-26-21(32-19)15-5-7-16(24)8-6-15/h5-14,28H,24H2,1-4H3,(H,25,27)

> <Ligand InChI Key>
UVBUFLDCNQMWHD-UHFFFAOYSA-N

> <BindingDB MonomerID>
546410

> <BindingDB Ligand Name>
US11291655, No E16

> <Target Name>
DNA repair protein RAD51 homolog 1

> <Target Source Organism According to Curator or DataSource>
Homo sapiens

> <Ki (nM)>


> <IC50 (nM)>


> <Kd (nM)>


> <EC50 (nM)>
>10000

> <kon (M-1-s-1)>


> <koff (s-1)>


> <pH>


> <Temp C>


> <Curation/DataSource>
US Patent

> <Article DOI>


> <BindingDB Entry DOI>
10.7270/Q2NG4TV0

> <PMID>


> <PubChem AID>
aid1806421

> <Patent Number>
US11291655

> <Authors>
Castro, AC; McComas, CC; Vacca, J

> <Date of publication>
4/5/2022

> <Date in BindingDB>
7/21/2022

> <Institution>
Cyteir Therapeutics, Inc.

> <Link to Ligand in BindingDB>
http://www.bindingdb.org/bind/chemsearch/marvin/MolStructure.jsp?monomerid=546410

> <Link to Ligand-Target Pair in BindingDB>
http://www.bindingdb.org/jsp/dbsearch/PrimarySearch_ki.jsp?energyterm=kJ/mole&tag=pol&polymerid=4676&target=DNA+repair+protein+RAD51+homolog+1&column=ki&startPg=0&Increment=50&submit=Search

> <Link to Ligand-Target Pair in BindingDB>
http://www.bindingdb.org/jsp/dbsearch/PrimarySearch_ki.jsp?energyterm=kJ/mole&tag=r21&monomerid=546410&enzyme=DNA+repair+protein+RAD51+homolog+1&column=ki&startPg=0&Increment=50&submit=Search

> <Ligand HET ID in PDB>


> <PDB ID(s) for Ligand-Target Complex>


> <PubChem CID of Ligand>
137411988

> <PubChem SID of Ligand>
469681106

> <ChEBI ID of Ligand>


> <ChEMBL ID of Ligand>


> <DrugBank ID of Ligand>


> <IUPHAR_GRAC ID of Ligand>


> <KEGG ID of Ligand>


> <ZINC ID of Ligand>


> <Number of Protein Chains in Target (bigger than 1 implies a multichain complex)>
1

> <BindingDB Target Chain Sequence>
MAMQMQLEANADTSVEEESFGPQPISRLEQCGINANDVKKLEEAGFHTVEAVAYAPKKELINIKGISEAKADKILAEAAKLVPMGFTTATEFHQRRSEIIQITTGSKELDKLLQGGIETGSITEMFGEFRTGKTQICHTLAVTCQLPIDRGGGEGKAMYIDTEGTFRPERLLAVAERYGLSGSDVLDNVAYARAFNTDHQTQLLYQASAMMVESRYALLIVDSATALYRTDYSGRGELSARQMHLARFLRMLLRLADEFGVAVVITNQVVAQVDGAAMFAADPKKPIGGNIIAHASTTRLYLRKGRGETRICKIYDSPCLPEAEAMFAINADGVGDAKD

> <PDB ID(s) of Target Chain>
1N0W,5JZC,5NP7,5NWL,8BQ2,8BR2,8BSC

> <UniProt (SwissProt) Recommended Name of Target Chain>
DNA repair protein RAD51 homolog 1

> <UniProt (SwissProt) Entry Name of Target Chain>
RAD51_HUMAN

> <UniProt (SwissProt) Primary ID of Target Chain>
Q06609

> <UniProt (SwissProt) Secondary ID(s) of Target Chain>
B0FXP0 B2R8T6 Q6FHX9 Q6ZNA8 Q9BV60

> <UniProt (SwissProt) Alternative ID(s) of Target Chain>


> <UniProt (TrEMBL) Submitted Name of Target Chain>


> <UniProt (TrEMBL) Entry Name of Target Chain>


> <UniProt (TrEMBL) Primary ID of Target Chain>


> <UniProt (TrEMBL) Secondary ID(s) of Target Chain>


> <UniProt (TrEMBL) Alternative ID(s) of Target Chain>


$$$$
00270001.cdx
  Mrv0541 07212217012D          

 39 42  0  0  0  0            999 V2000
    0.1276    1.9858    0.0000 N   0  0  0  0  0  0  0  0  0  0  0  0
   -0.6974    1.9858    0.0000 C   0  0  0  0  0  0  0  0  0  0  0  0
   -0.9523    1.2011    0.0000 C   0  0  0  0  0  0  0  0  0  0  0  0
   -0.2849    0.7162    0.0000 S   0  0  0  0  0  0  0  0  0  0  0  0
    0.3825    1.2011    0.0000 C   0  0  0  0  0  0  0  0  0  0  0  0
   -1.7492    0.9876    0.0000 C   0  0  0  0  0  0  0  0  0  0  0  0
   -2.3326    1.5710    0.0000 C   0  0  0  0  0  0  0  0  0  0  0  0
   -3.1295    1.3574    0.0000 C   0  0  0  0  0  0  0  0  0  0  0  0
   -3.3430    0.5606    0.0000 C   0  0  0  0  0  0  0  0  0  0  0  0
   -2.7596   -0.0228    0.0000 C   0  0  0  0  0  0  0  0  0  0  0  0
   -1.9628    0.1907    0.0000 C   0  0  0  0  0  0  0  0  0  0  0  0
   -4.1399    0.3470    0.0000 N   0  0  0  0  0  0  0  0  0  0  0  0
   -1.3794   -0.3926    0.0000 S   0  0  0  0  0  0  0  0  0  0  0  0
   -1.5929   -1.1895    0.0000 N   0  0  0  0  0  0  0  0  0  0  0  0
   -0.5825   -0.6062    0.0000 O   0  0  0  0  0  0  0  0  0  0  0  0
   -0.7960    0.1907    0.0000 O   0  0  0  0  0  0  0  0  0  0  0  0
   -2.3898   -1.4031    0.0000 C   0  0  0  0  0  0  0  0  0  0  0  0
   -2.6033   -2.1999    0.0000 C   0  0  0  0  0  0  0  0  0  0  0  0
   -2.9732   -0.8197    0.0000 C   0  0  0  0  0  0  0  0  0  0  0  0
   -3.1867   -1.6166    0.0000 C   0  0  0  0  0  0  0  0  0  0  0  0
    1.1794    0.9876    0.0000 C   0  0  0  0  0  0  0  0  0  0  0  0
    1.3930    0.1907    0.0000 C   0  0  0  0  0  0  0  0  0  0  0  0
    2.1898   -0.0228    0.0000 C   0  0  0  0  0  0  0  0  0  0  0  0
    2.7732    0.5606    0.0000 C   0  0  0  0  0  0  0  0  0  0  0  0
    2.5597    1.3574    0.0000 C   0  0  0  0  0  0  0  0  0  0  0  0
    1.7628    1.5710    0.0000 C   0  0  0  0  0  0  0  0  0  0  0  0
   -5.5483    0.9304    0.0000 N   0  0  0  0  0  0  0  0  0  0  0  0
   -4.7233    0.9304    0.0000 C   0  0  0  0  0  0  0  0  0  0  0  0
   -4.4683    1.7150    0.0000 N   0  0  0  0  0  0  0  0  0  0  0  0
   -5.1358    2.1999    0.0000 C   0  0  0  0  0  0  0  0  0  0  0  0
   -5.8032    1.7150    0.0000 C   0  0  0  0  0  0  0  0  0  0  0  0
   -5.9608    0.2159    0.0000 C   0  0  0  0  0  0  0  0  0  0  0  0
    3.5701    0.3470    0.0000 N   0  0  0  0  0  0  0  0  0  0  0  0
    3.7836   -0.4499    0.0000 C   0  0  0  0  0  0  0  0  0  0  0  0
    4.5805   -0.6634    0.0000 N   0  0  0  0  0  0  0  0  0  0  0  0
    3.2003   -1.0332    0.0000 S   0  0  0  0  0  0  0  0  0  0  0  0
    5.1639   -0.0800    0.0000 C   0  0  0  0  0  0  0  0  0  0  0  0
    5.9608   -0.2935    0.0000 C   0  0  0  0  0  0  0  0  0  0  0  0
    4.9503    0.7169    0.0000 C   0  0  0  0  0  0  0  0  0  0  0  0
  1  2  4  0  0  0  0
  2  3  4  0  0  0  0
  3  4  4  0  0  0  0
  4  5  4  0  0  0  0
  5  1  4  0  0  0  0
  3  6  1  0  0  0  0
  6  7  4  0  0  0  0
  7  8  4  0  0  0  0
  8  9  4  0  0  0  0
  9 10  4  0  0  0  0
 10 11  4  0  0  0  0
 11  6  4  0  0  0  0
  9 12  1  0  0  0  0
 12 28  1  0  0  0  0
 11 13  1  0  0  0  0
 13 14  1  0  0  0  0
 13 15  2  0  0  0  0
 16 13  2  0  0  0  0
 14 17  1  0  0  0  0
 17 18  1  0  0  0  0
 17 19  1  0  0  0  0
 17 20  1  0  0  0  0
  5 21  1  0  0  0  0
 21 22  4  0  0  0  0
 22 23  4  0  0  0  0
 23 24  4  0  0  0  0
 24 25  4  0  0  0  0
 25 26  4  0  0  0  0
 26 21  4  0  0  0  0
 27 28  4  0  0  0  0
 28 29  4  0  0  0  0
 29 30  4  0  0  0  0
 30 31  4  0  0  0  0
 31 27  4  0  0  0  0
 27 32  1  0  0  0  0
 24 33  1  0  0  0  0
 33 34  1  0  0  0  0
 34 35  1  0  0  0  0
 34 36  2  0  0  0  0
 35 37  1  0  0  0  0
 37 38  1  0  0  0  0
 37 39  1  0  0  0  0
M  END
> <From>
www.bindingDB.org

> <BindingDB Reactant_set_id>
1155260

> <Ligand InChI>
InChI=1S/C27H33N7O2S3/c1-17(2)30-26(37)32-19-9-7-18(8-10-19)24-29-16-22(38-24)21-12-11-20(31-25-28-13-14-34(25)6)15-23(21)39(35,36)33-27(3,4)5/h7-17,33H,1-6H3,(H,28,31)(H2,30,32,37)

> <Ligand InChI Key>
HDSMLTZEIPALTD-UHFFFAOYSA-N

> <BindingDB MonomerID>
546411

> <BindingDB Ligand Name>
US11291655, No E17

> <Target Name>
DNA repair protein RAD51 homolog 1

> <Target Source Organism According to Curator or DataSource>
Homo sapiens

> <Ki (nM)>


> <IC50 (nM)>


> <Kd (nM)>


> <EC50 (nM)>
>10000

> <kon (M-1-s-1)>


> <koff (s-1)>


> <pH>


> <Temp C>


> <Curation/DataSource>
US Patent

> <Article DOI>


> <BindingDB Entry DOI>
10.7270/Q2NG4TV0

> <PMID>


> <PubChem AID>
aid1806421

> <Patent Number>
US11291655

> <Authors>
Castro, AC; McComas, CC; Vacca, J

> <Date of publication>
4/5/2022

> <Date in BindingDB>
7/21/2022

> <Institution>
Cyteir Therapeutics, Inc.

> <Link to Ligand in BindingDB>
http://www.bindingdb.org/bind/chemsearch/marvin/MolStructure.jsp?monomerid=546411

> <Link to Ligand-Target Pair in BindingDB>
http://www.bindingdb.org/jsp/dbsearch/PrimarySearch_ki.jsp?energyterm=kJ/mole&tag=pol&polymerid=4676&target=DNA+repair+protein+RAD51+homolog+1&column=ki&startPg=0&Increment=50&submit=Search

> <Link to Ligand-Target Pair in BindingDB>
http://www.bindingdb.org/jsp/dbsearch/PrimarySearch_ki.jsp?energyterm=kJ/mole&tag=r21&monomerid=546411&enzyme=DNA+repair+protein+RAD51+homolog+1&column=ki&startPg=0&Increment=50&submit=Search

> <Ligand HET ID in PDB>


> <PDB ID(s) for Ligand-Target Complex>


> <PubChem CID of Ligand>
137411697

> <PubChem SID of Ligand>
469681107

> <ChEBI ID of Ligand>


> <ChEMBL ID of Ligand>


> <DrugBank ID of Ligand>


> <IUPHAR_GRAC ID of Ligand>


> <KEGG ID of Ligand>


> <ZINC ID of Ligand>


> <Number of Protein Chains in Target (bigger than 1 implies a multichain complex)>
1

> <BindingDB Target Chain Sequence>
MAMQMQLEANADTSVEEESFGPQPISRLEQCGINANDVKKLEEAGFHTVEAVAYAPKKELINIKGISEAKADKILAEAAKLVPMGFTTATEFHQRRSEIIQITTGSKELDKLLQGGIETGSITEMFGEFRTGKTQICHTLAVTCQLPIDRGGGEGKAMYIDTEGTFRPERLLAVAERYGLSGSDVLDNVAYARAFNTDHQTQLLYQASAMMVESRYALLIVDSATALYRTDYSGRGELSARQMHLARFLRMLLRLADEFGVAVVITNQVVAQVDGAAMFAADPKKPIGGNIIAHASTTRLYLRKGRGETRICKIYDSPCLPEAEAMFAINADGVGDAKD

> <PDB ID(s) of Target Chain>
1N0W,5JZC,5NP7,5NWL,8BQ2,8BR2,8BSC

> <UniProt (SwissProt) Recommended Name of Target Chain>
DNA repair protein RAD51 homolog 1

> <UniProt (SwissProt) Entry Name of Target Chain>
RAD51_HUMAN

> <UniProt (SwissProt) Primary ID of Target Chain>
Q06609

> <UniProt (SwissProt) Secondary ID(s) of Target Chain>
B0FXP0 B2R8T6 Q6FHX9 Q6ZNA8 Q9BV60

> <UniProt (SwissProt) Alternative ID(s) of Target Chain>


> <UniProt (TrEMBL) Submitted Name of Target Chain>


> <UniProt (TrEMBL) Entry Name of Target Chain>


> <UniProt (TrEMBL) Primary ID of Target Chain>


> <UniProt (TrEMBL) Secondary ID(s) of Target Chain>


> <UniProt (TrEMBL) Alternative ID(s) of Target Chain>


$$$$
00271001.cdx
  Mrv0541 07212217012D          

 29 32  0  0  0  0            999 V2000
    1.3229    1.4806    0.0000 N   0  0  0  0  0  0  0  0  0  0  0  0
    0.4979    1.4806    0.0000 C   0  0  0  0  0  0  0  0  0  0  0  0
    0.2430    0.6959    0.0000 C   0  0  0  0  0  0  0  0  0  0  0  0
    0.9104    0.2110    0.0000 S   0  0  0  0  0  0  0  0  0  0  0  0
    1.5779    0.6959    0.0000 C   0  0  0  0  0  0  0  0  0  0  0  0
   -0.5539    0.4824    0.0000 C   0  0  0  0  0  0  0  0  0  0  0  0
   -1.1373    1.0658    0.0000 C   0  0  0  0  0  0  0  0  0  0  0  0
   -1.9341    0.8522    0.0000 C   0  0  0  0  0  0  0  0  0  0  0  0
   -2.1477    0.0554    0.0000 C   0  0  0  0  0  0  0  0  0  0  0  0
   -1.5643   -0.5280    0.0000 C   0  0  0  0  0  0  0  0  0  0  0  0
   -0.7674   -0.3145    0.0000 C   0  0  0  0  0  0  0  0  0  0  0  0
   -2.9446   -0.1582    0.0000 N   0  0  0  0  0  0  0  0  0  0  0  0
   -0.1841   -0.8978    0.0000 S   0  0  0  0  0  0  0  0  0  0  0  0
   -0.3976   -1.6947    0.0000 N   0  0  0  0  0  0  0  0  0  0  0  0
    0.6128   -1.1114    0.0000 O   0  0  0  0  0  0  0  0  0  0  0  0
    0.3993   -0.3145    0.0000 O   0  0  0  0  0  0  0  0  0  0  0  0
    2.3748    0.4824    0.0000 C   0  0  0  0  0  0  0  0  0  0  0  0
    2.5883   -0.3145    0.0000 C   0  0  0  0  0  0  0  0  0  0  0  0
    3.3852   -0.5280    0.0000 C   0  0  0  0  0  0  0  0  0  0  0  0
    3.9685    0.0554    0.0000 C   0  0  0  0  0  0  0  0  0  0  0  0
    3.7550    0.8522    0.0000 C   0  0  0  0  0  0  0  0  0  0  0  0
    2.9581    1.0658    0.0000 C   0  0  0  0  0  0  0  0  0  0  0  0
   -4.3529    0.4252    0.0000 N   0  0  0  0  0  0  0  0  0  0  0  0
   -3.5279    0.4252    0.0000 C   0  0  0  0  0  0  0  0  0  0  0  0
   -3.2730    1.2098    0.0000 N   0  0  0  0  0  0  0  0  0  0  0  0
   -3.9404    1.6947    0.0000 C   0  0  0  0  0  0  0  0  0  0  0  0
   -4.6079    1.2098    0.0000 C   0  0  0  0  0  0  0  0  0  0  0  0
   -4.7654   -0.2893    0.0000 C   0  0  0  0  0  0  0  0  0  0  0  0
    4.7654   -0.1582    0.0000 N   0  0  0  0  0  0  0  0  0  0  0  0
  1  2  4  0  0  0  0
  2  3  4  0  0  0  0
  3  4  4  0  0  0  0
  4  5  4  0  0  0  0
  5  1  4  0  0  0  0
  3  6  1  0  0  0  0
  6  7  4  0  0  0  0
  7  8  4  0  0  0  0
  8  9  4  0  0  0  0
  9 10  4  0  0  0  0
 10 11  4  0  0  0  0
 11  6  4  0  0  0  0
  9 12  1  0  0  0  0
 12 24  1  0  0  0  0
 11 13  1  0  0  0  0
 13 14  1  0  0  0  0
 13 15  2  0  0  0  0
 16 13  2  0  0  0  0
  5 17  1  0  0  0  0
 17 18  4  0  0  0  0
 18 19  4  0  0  0  0
 19 20  4  0  0  0  0
 20 21  4  0  0  0  0
 21 22  4  0  0  0  0
 22 17  4  0  0  0  0
 23 24  4  0  0  0  0
 24 25  4  0  0  0  0
 25 26  4  0  0  0  0
 26 27  4  0  0  0  0
 27 23  4  0  0  0  0
 23 28  1  0  0  0  0
 20 29  1  0  0  0  0
M  END
> <From>
www.bindingDB.org

> <BindingDB Reactant_set_id>
1155261

> <Ligand InChI>
InChI=1S/C19H18N6O2S2/c1-25-9-8-22-19(25)24-14-6-7-15(17(10-14)29(21,26)27)16-11-23-18(28-16)12-2-4-13(20)5-3-12/h2-11H,20H2,1H3,(H,22,24)(H2,21,26,27)

> <Ligand InChI Key>
OCJZBFYNUSAMCS-UHFFFAOYSA-N

> <BindingDB MonomerID>
546412

> <BindingDB Ligand Name>
US11291655, No E18

> <Target Name>
DNA repair protein RAD51 homolog 1

> <Target Source Organism According to Curator or DataSource>
Homo sapiens

> <Ki (nM)>


> <IC50 (nM)>


> <Kd (nM)>


> <EC50 (nM)>
>10000

> <kon (M-1-s-1)>


> <koff (s-1)>


> <pH>


> <Temp C>


> <Curation/DataSource>
US Patent

> <Article DOI>


> <BindingDB Entry DOI>
10.7270/Q2NG4TV0

> <PMID>


> <PubChem AID>
aid1806421

> <Patent Number>
US11291655

> <Authors>
Castro, AC; McComas, CC; Vacca, J

> <Date of publication>
4/5/2022

> <Date in BindingDB>
7/21/2022

> <Institution>
Cyteir Therapeutics, Inc.

> <Link to Ligand in BindingDB>
http://www.bindingdb.org/bind/chemsearch/marvin/MolStructure.jsp?monomerid=546412

> <Link to Ligand-Target Pair in BindingDB>
http://www.bindingdb.org/jsp/dbsearch/PrimarySearch_ki.jsp?energyterm=kJ/mole&tag=pol&polymerid=4676&target=DNA+repair+protein+RAD51+homolog+1&column=ki&startPg=0&Increment=50&submit=Search

> <Link to Ligand-Target Pair in BindingDB>
http://www.bindingdb.org/jsp/dbsearch/PrimarySearch_ki.jsp?energyterm=kJ/mole&tag=r21&monomerid=546412&enzyme=DNA+repair+protein+RAD51+homolog+1&column=ki&startPg=0&Increment=50&submit=Search

> <Ligand HET ID in PDB>


> <PDB ID(s) for Ligand-Target Complex>


> <PubChem CID of Ligand>
137411821

> <PubChem SID of Ligand>
469681108

> <ChEBI ID of Ligand>


> <ChEMBL ID of Ligand>


> <DrugBank ID of Ligand>


> <IUPHAR_GRAC ID of Ligand>


> <KEGG ID of Ligand>


> <ZINC ID of Ligand>


> <Number of Protein Chains in Target (bigger than 1 implies a multichain complex)>
1

> <BindingDB Target Chain Sequence>
MAMQMQLEANADTSVEEESFGPQPISRLEQCGINANDVKKLEEAGFHTVEAVAYAPKKELINIKGISEAKADKILAEAAKLVPMGFTTATEFHQRRSEIIQITTGSKELDKLLQGGIETGSITEMFGEFRTGKTQICHTLAVTCQLPIDRGGGEGKAMYIDTEGTFRPERLLAVAERYGLSGSDVLDNVAYARAFNTDHQTQLLYQASAMMVESRYALLIVDSATALYRTDYSGRGELSARQMHLARFLRMLLRLADEFGVAVVITNQVVAQVDGAAMFAADPKKPIGGNIIAHASTTRLYLRKGRGETRICKIYDSPCLPEAEAMFAINADGVGDAKD

> <PDB ID(s) of Target Chain>
1N0W,5JZC,5NP7,5NWL,8BQ2,8BR2,8BSC

> <UniProt (SwissProt) Recommended Name of Target Chain>
DNA repair protein RAD51 homolog 1

> <UniProt (SwissProt) Entry Name of Target Chain>
RAD51_HUMAN

> <UniProt (SwissProt) Primary ID of Target Chain>
Q06609

> <UniProt (SwissProt) Secondary ID(s) of Target Chain>
B0FXP0 B2R8T6 Q6FHX9 Q6ZNA8 Q9BV60

> <UniProt (SwissProt) Alternative ID(s) of Target Chain>


> <UniProt (TrEMBL) Submitted Name of Target Chain>


> <UniProt (TrEMBL) Entry Name of Target Chain>


> <UniProt (TrEMBL) Primary ID of Target Chain>


> <UniProt (TrEMBL) Secondary ID(s) of Target Chain>


> <UniProt (TrEMBL) Alternative ID(s) of Target Chain>


$$$$
00272001.cdx
  Mrv0541 07212217012D          

 35 38  0  0  0  0            999 V2000
    0.1276    1.4806    0.0000 N   0  0  0  0  0  0  0  0  0  0  0  0
   -0.6974    1.4806    0.0000 C   0  0  0  0  0  0  0  0  0  0  0  0
   -0.9523    0.6959    0.0000 C   0  0  0  0  0  0  0  0  0  0  0  0
   -0.2849    0.2110    0.0000 S   0  0  0  0  0  0  0  0  0  0  0  0
    0.3825    0.6959    0.0000 C   0  0  0  0  0  0  0  0  0  0  0  0
   -1.7492    0.4824    0.0000 C   0  0  0  0  0  0  0  0  0  0  0  0
   -2.3326    1.0658    0.0000 C   0  0  0  0  0  0  0  0  0  0  0  0
   -3.1295    0.8522    0.0000 C   0  0  0  0  0  0  0  0  0  0  0  0
   -3.3430    0.0554    0.0000 C   0  0  0  0  0  0  0  0  0  0  0  0
   -2.7596   -0.5280    0.0000 C   0  0  0  0  0  0  0  0  0  0  0  0
   -1.9628   -0.3145    0.0000 C   0  0  0  0  0  0  0  0  0  0  0  0
   -4.1399   -0.1582    0.0000 N   0  0  0  0  0  0  0  0  0  0  0  0
   -1.3794   -0.8978    0.0000 S   0  0  0  0  0  0  0  0  0  0  0  0
   -1.5929   -1.6947    0.0000 N   0  0  0  0  0  0  0  0  0  0  0  0
   -0.5825   -1.1114    0.0000 O   0  0  0  0  0  0  0  0  0  0  0  0
   -0.7960   -0.3145    0.0000 O   0  0  0  0  0  0  0  0  0  0  0  0
    1.1794    0.4824    0.0000 C   0  0  0  0  0  0  0  0  0  0  0  0
    1.3930   -0.3145    0.0000 C   0  0  0  0  0  0  0  0  0  0  0  0
    2.1898   -0.5280    0.0000 C   0  0  0  0  0  0  0  0  0  0  0  0
    2.7732    0.0554    0.0000 C   0  0  0  0  0  0  0  0  0  0  0  0
    2.5597    0.8522    0.0000 C   0  0  0  0  0  0  0  0  0  0  0  0
    1.7628    1.0658    0.0000 C   0  0  0  0  0  0  0  0  0  0  0  0
   -5.5483    0.4252    0.0000 N   0  0  0  0  0  0  0  0  0  0  0  0
   -4.7233    0.4252    0.0000 C   0  0  0  0  0  0  0  0  0  0  0  0
   -4.4683    1.2098    0.0000 N   0  0  0  0  0  0  0  0  0  0  0  0
   -5.1358    1.6947    0.0000 C   0  0  0  0  0  0  0  0  0  0  0  0
   -5.8032    1.2098    0.0000 C   0  0  0  0  0  0  0  0  0  0  0  0
   -5.9608   -0.2893    0.0000 C   0  0  0  0  0  0  0  0  0  0  0  0
    3.5701   -0.1582    0.0000 N   0  0  0  0  0  0  0  0  0  0  0  0
    3.7836   -0.9551    0.0000 C   0  0  0  0  0  0  0  0  0  0  0  0
    4.5805   -1.1686    0.0000 N   0  0  0  0  0  0  0  0  0  0  0  0
    3.2003   -1.5384    0.0000 S   0  0  0  0  0  0  0  0  0  0  0  0
    5.1639   -0.5852    0.0000 C   0  0  0  0  0  0  0  0  0  0  0  0
    5.9608   -0.7987    0.0000 C   0  0  0  0  0  0  0  0  0  0  0  0
    4.9503    0.2117    0.0000 C   0  0  0  0  0  0  0  0  0  0  0  0
  1  2  4  0  0  0  0
  2  3  4  0  0  0  0
  3  4  4  0  0  0  0
  4  5  4  0  0  0  0
  5  1  4  0  0  0  0
  3  6  1  0  0  0  0
  6  7  4  0  0  0  0
  7  8  4  0  0  0  0
  8  9  4  0  0  0  0
  9 10  4  0  0  0  0
 10 11  4  0  0  0  0
 11  6  4  0  0  0  0
  9 12  1  0  0  0  0
 12 24  1  0  0  0  0
 11 13  1  0  0  0  0
 13 14  1  0  0  0  0
 13 15  2  0  0  0  0
 16 13  2  0  0  0  0
  5 17  1  0  0  0  0
 17 18  4  0  0  0  0
 18 19  4  0  0  0  0
 19 20  4  0  0  0  0
 20 21  4  0  0  0  0
 21 22  4  0  0  0  0
 22 17  4  0  0  0  0
 23 24  4  0  0  0  0
 24 25  4  0  0  0  0
 25 26  4  0  0  0  0
 26 27  4  0  0  0  0
 27 23  4  0  0  0  0
 23 28  1  0  0  0  0
 20 29  1  0  0  0  0
 29 30  1  0  0  0  0
 30 31  1  0  0  0  0
 30 32  2  0  0  0  0
 31 33  1  0  0  0  0
 33 34  1  0  0  0  0
 33 35  1  0  0  0  0
M  END
> <From>
www.bindingDB.org

> <BindingDB Reactant_set_id>
1155262

> <Ligand InChI>
InChI=1S/C23H25N7O2S3/c1-14(2)27-23(33)29-16-6-4-15(5-7-16)21-26-13-19(34-21)18-9-8-17(12-20(18)35(24,31)32)28-22-25-10-11-30(22)3/h4-14H,1-3H3,(H,25,28)(H2,24,31,32)(H2,27,29,33)

> <Ligand InChI Key>
HXBIPRDFKAFYKS-UHFFFAOYSA-N

> <BindingDB MonomerID>
546413

> <BindingDB Ligand Name>
US11291655, No E19

> <Target Name>
DNA repair protein RAD51 homolog 1

> <Target Source Organism According to Curator or DataSource>
Homo sapiens

> <Ki (nM)>


> <IC50 (nM)>


> <Kd (nM)>


> <EC50 (nM)>
>10000

> <kon (M-1-s-1)>


> <koff (s-1)>


> <pH>


> <Temp C>


> <Curation/DataSource>
US Patent

> <Article DOI>


> <BindingDB Entry DOI>
10.7270/Q2NG4TV0

> <PMID>


> <PubChem AID>
aid1806421

> <Patent Number>
US11291655

> <Authors>
Castro, AC; McComas, CC; Vacca, J

> <Date of publication>
4/5/2022

> <Date in BindingDB>
7/21/2022

> <Institution>
Cyteir Therapeutics, Inc.

> <Link to Ligand in BindingDB>
http://www.bindingdb.org/bind/chemsearch/marvin/MolStructure.jsp?monomerid=546413

> <Link to Ligand-Target Pair in BindingDB>
http://www.bindingdb.org/jsp/dbsearch/PrimarySearch_ki.jsp?energyterm=kJ/mole&tag=pol&polymerid=4676&target=DNA+repair+protein+RAD51+homolog+1&column=ki&startPg=0&Increment=50&submit=Search

> <Link to Ligand-Target Pair in BindingDB>
http://www.bindingdb.org/jsp/dbsearch/PrimarySearch_ki.jsp?energyterm=kJ/mole&tag=r21&monomerid=546413&enzyme=DNA+repair+protein+RAD51+homolog+1&column=ki&startPg=0&Increment=50&submit=Search

> <Ligand HET ID in PDB>


> <PDB ID(s) for Ligand-Target Complex>


> <PubChem CID of Ligand>
137411856

> <PubChem SID of Ligand>
469681109

> <ChEBI ID of Ligand>


> <ChEMBL ID of Ligand>


> <DrugBank ID of Ligand>


> <IUPHAR_GRAC ID of Ligand>


> <KEGG ID of Ligand>


> <ZINC ID of Ligand>


> <Number of Protein Chains in Target (bigger than 1 implies a multichain complex)>
1

> <BindingDB Target Chain Sequence>
MAMQMQLEANADTSVEEESFGPQPISRLEQCGINANDVKKLEEAGFHTVEAVAYAPKKELINIKGISEAKADKILAEAAKLVPMGFTTATEFHQRRSEIIQITTGSKELDKLLQGGIETGSITEMFGEFRTGKTQICHTLAVTCQLPIDRGGGEGKAMYIDTEGTFRPERLLAVAERYGLSGSDVLDNVAYARAFNTDHQTQLLYQASAMMVESRYALLIVDSATALYRTDYSGRGELSARQMHLARFLRMLLRLADEFGVAVVITNQVVAQVDGAAMFAADPKKPIGGNIIAHASTTRLYLRKGRGETRICKIYDSPCLPEAEAMFAINADGVGDAKD

> <PDB ID(s) of Target Chain>
1N0W,5JZC,5NP7,5NWL,8BQ2,8BR2,8BSC

> <UniProt (SwissProt) Recommended Name of Target Chain>
DNA repair protein RAD51 homolog 1

> <UniProt (SwissProt) Entry Name of Target Chain>
RAD51_HUMAN

> <UniProt (SwissProt) Primary ID of Target Chain>
Q06609

> <UniProt (SwissProt) Secondary ID(s) of Target Chain>
B0FXP0 B2R8T6 Q6FHX9 Q6ZNA8 Q9BV60

> <UniProt (SwissProt) Alternative ID(s) of Target Chain>


> <UniProt (TrEMBL) Submitted Name of Target Chain>


> <UniProt (TrEMBL) Entry Name of Target Chain>


> <UniProt (TrEMBL) Primary ID of Target Chain>


> <UniProt (TrEMBL) Secondary ID(s) of Target Chain>


> <UniProt (TrEMBL) Alternative ID(s) of Target Chain>


$$$$
00273001.cdx
  Mrv0541 07212217012D          

 43 46  0  0  0  0            999 V2000
   -6.6717   -0.3923    0.0000 C   0  0  0  0  0  0  0  0  0  0  0  0
   -6.6717   -1.2173    0.0000 C   0  0  0  0  0  0  0  0  0  0  0  0
   -5.9572   -1.6298    0.0000 C   0  0  0  0  0  0  0  0  0  0  0  0
   -5.2427   -1.2173    0.0000 C   0  0  0  0  0  0  0  0  0  0  0  0
   -5.2427   -0.3923    0.0000 C   0  0  0  0  0  0  0  0  0  0  0  0
   -5.9572    0.0202    0.0000 C   0  0  0  0  0  0  0  0  0  0  0  0
   -4.5283    0.0202    0.0000 C   0  0  0  0  0  0  0  0  0  0  0  0
   -3.8138   -0.3923    0.0000 S   0  0  0  0  0  0  0  0  0  0  0  0
   -3.0993   -0.8048    0.0000 N   0  0  0  0  0  0  0  0  0  0  0  0
   -3.4013    0.3222    0.0000 O   0  0  0  0  0  0  0  0  0  0  0  0
   -4.2263   -1.1068    0.0000 O   0  0  0  0  0  0  0  0  0  0  0  0
   -2.3848   -0.3923    0.0000 C   0  0  0  0  0  0  0  0  0  0  0  0
   -1.6704   -0.8048    0.0000 C   0  0  0  0  0  0  0  0  0  0  0  0
   -0.9559   -0.3923    0.0000 C   0  0  0  0  0  0  0  0  0  0  0  0
   -0.9559    0.4327    0.0000 C   0  0  0  0  0  0  0  0  0  0  0  0
   -1.6704    0.8452    0.0000 C   0  0  0  0  0  0  0  0  0  0  0  0
   -2.3848    0.4327    0.0000 C   0  0  0  0  0  0  0  0  0  0  0  0
   -0.2414   -0.8048    0.0000 S   0  0  0  0  0  0  0  0  0  0  0  0
    0.4730   -1.2173    0.0000 N   0  0  0  0  0  0  0  0  0  0  0  0
    0.1711   -0.0903    0.0000 O   0  0  0  0  0  0  0  0  0  0  0  0
   -0.6539   -1.5193    0.0000 O   0  0  0  0  0  0  0  0  0  0  0  0
    1.1875   -0.8048    0.0000 C   0  0  0  0  0  0  0  0  0  0  0  0
    1.9020   -1.2173    0.0000 C   0  0  0  0  0  0  0  0  0  0  0  0
    1.1875    0.0202    0.0000 C   0  0  0  0  0  0  0  0  0  0  0  0
    1.9020   -0.3923    0.0000 C   0  0  0  0  0  0  0  0  0  0  0  0
    0.8385    1.6298    0.0000 N   0  0  0  0  0  0  0  0  0  0  0  0
    0.0135    1.6298    0.0000 C   0  0  0  0  0  0  0  0  0  0  0  0
   -0.2414    0.8452    0.0000 C   0  0  0  0  0  0  0  0  0  0  0  0
    0.4260    0.3603    0.0000 S   0  0  0  0  0  0  0  0  0  0  0  0
    1.0934    0.8452    0.0000 C   0  0  0  0  0  0  0  0  0  0  0  0
    1.8903    0.6317    0.0000 C   0  0  0  0  0  0  0  0  0  0  0  0
    2.1039   -0.1652    0.0000 C   0  0  0  0  0  0  0  0  0  0  0  0
    2.9008   -0.3788    0.0000 C   0  0  0  0  0  0  0  0  0  0  0  0
    3.4841    0.2046    0.0000 C   0  0  0  0  0  0  0  0  0  0  0  0
    3.2706    1.0015    0.0000 C   0  0  0  0  0  0  0  0  0  0  0  0
    2.4737    1.2150    0.0000 C   0  0  0  0  0  0  0  0  0  0  0  0
    4.2810   -0.0089    0.0000 N   0  0  0  0  0  0  0  0  0  0  0  0
    4.4945   -0.8058    0.0000 C   0  0  0  0  0  0  0  0  0  0  0  0
    5.2914   -1.0193    0.0000 O   0  0  0  0  0  0  0  0  0  0  0  0
    3.9112   -1.3892    0.0000 O   0  0  0  0  0  0  0  0  0  0  0  0
    5.8748   -0.4360    0.0000 C   0  0  0  0  0  0  0  0  0  0  0  0
    6.6717   -0.6495    0.0000 C   0  0  0  0  0  0  0  0  0  0  0  0
    5.6613    0.3609    0.0000 C   0  0  0  0  0  0  0  0  0  0  0  0
  1  2  4  0  0  0  0
  2  3  4  0  0  0  0
  3  4  4  0  0  0  0
  4  5  4  0  0  0  0
  5  6  4  0  0  0  0
  6  1  4  0  0  0  0
  5  7  1  0  0  0  0
  7  8  1  0  0  0  0
  8  9  1  0  0  0  0
  8 10  2  0  0  0  0
  8 11  2  0  0  0  0
  9 12  1  0  0  0  0
 12 13  4  0  0  0  0
 13 14  4  0  0  0  0
 14 15  4  0  0  0  0
 15 16  4  0  0  0  0
 16 17  4  0  0  0  0
 17 12  4  0  0  0  0
 14 18  1  0  0  0  0
 18 19  1  0  0  0  0
 18 20  2  0  0  0  0
 18 21  2  0  0  0  0
 19 22  1  0  0  0  0
 22 23  1  0  0  0  0
 22 24  1  0  0  0  0
 22 25  1  0  0  0  0
 15 28  1  0  0  0  0
 26 27  4  0  0  0  0
 27 28  4  0  0  0  0
 28 29  4  0  0  0  0
 29 30  4  0  0  0  0
 30 26  4  0  0  0  0
 30 31  1  0  0  0  0
 31 32  4  0  0  0  0
 32 33  4  0  0  0  0
 33 34  4  0  0  0  0
 34 35  4  0  0  0  0
 35 36  4  0  0  0  0
 36 31  4  0  0  0  0
 34 37  1  0  0  0  0
 37 38  1  0  0  0  0
 38 39  1  0  0  0  0
 38 40  2  0  0  0  0
 39 41  1  0  0  0  0
 41 42  1  0  0  0  0
 41 43  1  0  0  0  0
M  END
> <From>
www.bindingDB.org

> <BindingDB Reactant_set_id>
1155263

> <Ligand InChI>
InChI=1S/C30H34N4O6S3/c1-20(2)40-29(35)32-23-13-11-22(12-14-23)28-31-18-26(41-28)25-16-15-24(17-27(25)43(38,39)34-30(3,4)5)33-42(36,37)19-21-9-7-6-8-10-21/h6-18,20,33-34H,19H2,1-5H3,(H,32,35)

> <Ligand InChI Key>
ZIPASDIEENCLHU-UHFFFAOYSA-N

> <BindingDB MonomerID>
546414

> <BindingDB Ligand Name>
US11291655, No E2

> <Target Name>
DNA repair protein RAD51 homolog 1

> <Target Source Organism According to Curator or DataSource>
Homo sapiens

> <Ki (nM)>


> <IC50 (nM)>


> <Kd (nM)>


> <EC50 (nM)>
>10000

> <kon (M-1-s-1)>


> <koff (s-1)>


> <pH>


> <Temp C>


> <Curation/DataSource>
US Patent

> <Article DOI>


> <BindingDB Entry DOI>
10.7270/Q2NG4TV0

> <PMID>


> <PubChem AID>
aid1806421

> <Patent Number>
US11291655

> <Authors>
Castro, AC; McComas, CC; Vacca, J

> <Date of publication>
4/5/2022

> <Date in BindingDB>
7/21/2022

> <Institution>
Cyteir Therapeutics, Inc.

> <Link to Ligand in BindingDB>
http://www.bindingdb.org/bind/chemsearch/marvin/MolStructure.jsp?monomerid=546414

> <Link to Ligand-Target Pair in BindingDB>
http://www.bindingdb.org/jsp/dbsearch/PrimarySearch_ki.jsp?energyterm=kJ/mole&tag=pol&polymerid=4676&target=DNA+repair+protein+RAD51+homolog+1&column=ki&startPg=0&Increment=50&submit=Search

> <Link to Ligand-Target Pair in BindingDB>
http://www.bindingdb.org/jsp/dbsearch/PrimarySearch_ki.jsp?energyterm=kJ/mole&tag=r21&monomerid=546414&enzyme=DNA+repair+protein+RAD51+homolog+1&column=ki&startPg=0&Increment=50&submit=Search

> <Ligand HET ID in PDB>


> <PDB ID(s) for Ligand-Target Complex>


> <PubChem CID of Ligand>
137411802

> <PubChem SID of Ligand>
469681110

> <ChEBI ID of Ligand>


> <ChEMBL ID of Ligand>


> <DrugBank ID of Ligand>


> <IUPHAR_GRAC ID of Ligand>


> <KEGG ID of Ligand>


> <ZINC ID of Ligand>


> <Number of Protein Chains in Target (bigger than 1 implies a multichain complex)>
1

> <BindingDB Target Chain Sequence>
MAMQMQLEANADTSVEEESFGPQPISRLEQCGINANDVKKLEEAGFHTVEAVAYAPKKELINIKGISEAKADKILAEAAKLVPMGFTTATEFHQRRSEIIQITTGSKELDKLLQGGIETGSITEMFGEFRTGKTQICHTLAVTCQLPIDRGGGEGKAMYIDTEGTFRPERLLAVAERYGLSGSDVLDNVAYARAFNTDHQTQLLYQASAMMVESRYALLIVDSATALYRTDYSGRGELSARQMHLARFLRMLLRLADEFGVAVVITNQVVAQVDGAAMFAADPKKPIGGNIIAHASTTRLYLRKGRGETRICKIYDSPCLPEAEAMFAINADGVGDAKD

> <PDB ID(s) of Target Chain>
1N0W,5JZC,5NP7,5NWL,8BQ2,8BR2,8BSC

> <UniProt (SwissProt) Recommended Name of Target Chain>
DNA repair protein RAD51 homolog 1

> <UniProt (SwissProt) Entry Name of Target Chain>
RAD51_HUMAN

> <UniProt (SwissProt) Primary ID of Target Chain>
Q06609

> <UniProt (SwissProt) Secondary ID(s) of Target Chain>
B0FXP0 B2R8T6 Q6FHX9 Q6ZNA8 Q9BV60

> <UniProt (SwissProt) Alternative ID(s) of Target Chain>


> <UniProt (TrEMBL) Submitted Name of Target Chain>


> <UniProt (TrEMBL) Entry Name of Target Chain>


> <UniProt (TrEMBL) Primary ID of Target Chain>


> <UniProt (TrEMBL) Secondary ID(s) of Target Chain>


> <UniProt (TrEMBL) Alternative ID(s) of Target Chain>


$$$$
00274001.cdx
  Mrv0541 07212217012D          

 37 39  0  0  0  0            999 V2000
   -0.0927    2.0929    0.0000 N   0  0  0  0  0  0  0  0  0  0  0  0
   -0.9177    2.0929    0.0000 C   0  0  0  0  0  0  0  0  0  0  0  0
   -1.1726    1.3082    0.0000 C   0  0  0  0  0  0  0  0  0  0  0  0
   -0.5052    0.8233    0.0000 S   0  0  0  0  0  0  0  0  0  0  0  0
    0.1622    1.3082    0.0000 C   0  0  0  0  0  0  0  0  0  0  0  0
   -1.9695    1.0947    0.0000 C   0  0  0  0  0  0  0  0  0  0  0  0
   -2.5529    1.6781    0.0000 C   0  0  0  0  0  0  0  0  0  0  0  0
   -3.3498    1.4645    0.0000 C   0  0  0  0  0  0  0  0  0  0  0  0
   -3.5633    0.6677    0.0000 C   0  0  0  0  0  0  0  0  0  0  0  0
   -2.9799    0.0843    0.0000 C   0  0  0  0  0  0  0  0  0  0  0  0
   -2.1831    0.2978    0.0000 C   0  0  0  0  0  0  0  0  0  0  0  0
   -4.3602    0.4541    0.0000 N   0  0  0  0  0  0  0  0  0  0  0  0
   -1.5997   -0.2855    0.0000 S   0  0  0  0  0  0  0  0  0  0  0  0
   -1.8132   -1.0824    0.0000 N   0  0  0  0  0  0  0  0  0  0  0  0
   -0.8028   -0.4991    0.0000 O   0  0  0  0  0  0  0  0  0  0  0  0
   -1.0163    0.2978    0.0000 O   0  0  0  0  0  0  0  0  0  0  0  0
   -2.6101   -1.2960    0.0000 C   0  0  0  0  0  0  0  0  0  0  0  0
   -2.8236   -2.0929    0.0000 C   0  0  0  0  0  0  0  0  0  0  0  0
   -3.1935   -0.7126    0.0000 C   0  0  0  0  0  0  0  0  0  0  0  0
   -3.4070   -1.5095    0.0000 C   0  0  0  0  0  0  0  0  0  0  0  0
    0.9591    1.0947    0.0000 C   0  0  0  0  0  0  0  0  0  0  0  0
    1.1726    0.2978    0.0000 C   0  0  0  0  0  0  0  0  0  0  0  0
    1.9695    0.0843    0.0000 C   0  0  0  0  0  0  0  0  0  0  0  0
    2.5529    0.6677    0.0000 C   0  0  0  0  0  0  0  0  0  0  0  0
    2.3394    1.4645    0.0000 C   0  0  0  0  0  0  0  0  0  0  0  0
    1.5425    1.6781    0.0000 C   0  0  0  0  0  0  0  0  0  0  0  0
    3.3498    0.4541    0.0000 N   0  0  0  0  0  0  0  0  0  0  0  0
    3.5633   -0.3428    0.0000 C   0  0  0  0  0  0  0  0  0  0  0  0
    4.3602   -0.5563    0.0000 O   0  0  0  0  0  0  0  0  0  0  0  0
    2.9799   -0.9261    0.0000 O   0  0  0  0  0  0  0  0  0  0  0  0
    4.9436    0.0271    0.0000 C   0  0  0  0  0  0  0  0  0  0  0  0
    5.7405   -0.1865    0.0000 C   0  0  0  0  0  0  0  0  0  0  0  0
    4.7300    0.8240    0.0000 C   0  0  0  0  0  0  0  0  0  0  0  0
   -4.9436    1.0375    0.0000 C   0  0  0  0  0  0  0  0  0  0  0  0
   -4.5737   -0.3428    0.0000 C   0  0  0  0  0  0  0  0  0  0  0  0
   -4.7300    1.8344    0.0000 O   0  0  0  0  0  0  0  0  0  0  0  0
   -5.7405    0.8240    0.0000 C   0  0  0  0  0  0  0  0  0  0  0  0
  1  2  4  0  0  0  0
  2  3  4  0  0  0  0
  3  4  4  0  0  0  0
  4  5  4  0  0  0  0
  5  1  4  0  0  0  0
  3  6  1  0  0  0  0
  6  7  4  0  0  0  0
  7  8  4  0  0  0  0
  8  9  4  0  0  0  0
  9 10  4  0  0  0  0
 10 11  4  0  0  0  0
 11  6  4  0  0  0  0
  9 12  1  0  0  0  0
 11 13  1  0  0  0  0
 13 14  1  0  0  0  0
 13 15  2  0  0  0  0
 16 13  2  0  0  0  0
 14 17  1  0  0  0  0
 17 18  1  0  0  0  0
 17 19  1  0  0  0  0
 17 20  1  0  0  0  0
  5 21  1  0  0  0  0
 21 22  4  0  0  0  0
 22 23  4  0  0  0  0
 23 24  4  0  0  0  0
 24 25  4  0  0  0  0
 25 26  4  0  0  0  0
 26 21  4  0  0  0  0
 24 27  1  0  0  0  0
 27 28  1  0  0  0  0
 28 29  1  0  0  0  0
 28 30  2  0  0  0  0
 29 31  1  0  0  0  0
 31 32  1  0  0  0  0
 31 33  1  0  0  0  0
 12 34  1  0  0  0  0
 12 35  1  0  0  0  0
 34 36  2  0  0  0  0
 34 37  1  0  0  0  0
M  END
> <From>
www.bindingDB.org

> <BindingDB Reactant_set_id>
1155264

> <Ligand InChI>
InChI=1S/C26H32N4O5S2/c1-16(2)35-25(32)28-19-10-8-18(9-11-19)24-27-15-22(36-24)21-13-12-20(30(7)17(3)31)14-23(21)37(33,34)29-26(4,5)6/h8-16,29H,1-7H3,(H,28,32)

> <Ligand InChI Key>
LUJMEKQUZACKTE-UHFFFAOYSA-N

> <BindingDB MonomerID>
546415

> <BindingDB Ligand Name>
US11291655, No E20

> <Target Name>
DNA repair protein RAD51 homolog 1

> <Target Source Organism According to Curator or DataSource>
Homo sapiens

> <Ki (nM)>


> <IC50 (nM)>


> <Kd (nM)>


> <EC50 (nM)>
<10000

> <kon (M-1-s-1)>


> <koff (s-1)>


> <pH>


> <Temp C>


> <Curation/DataSource>
US Patent

> <Article DOI>


> <BindingDB Entry DOI>
10.7270/Q2NG4TV0

> <PMID>


> <PubChem AID>
aid1806421

> <Patent Number>
US11291655

> <Authors>
Castro, AC; McComas, CC; Vacca, J

> <Date of publication>
4/5/2022

> <Date in BindingDB>
7/21/2022

> <Institution>
Cyteir Therapeutics, Inc.

> <Link to Ligand in BindingDB>
http://www.bindingdb.org/bind/chemsearch/marvin/MolStructure.jsp?monomerid=546415

> <Link to Ligand-Target Pair in BindingDB>
http://www.bindingdb.org/jsp/dbsearch/PrimarySearch_ki.jsp?energyterm=kJ/mole&tag=pol&polymerid=4676&target=DNA+repair+protein+RAD51+homolog+1&column=ki&startPg=0&Increment=50&submit=Search

> <Link to Ligand-Target Pair in BindingDB>
http://www.bindingdb.org/jsp/dbsearch/PrimarySearch_ki.jsp?energyterm=kJ/mole&tag=r21&monomerid=546415&enzyme=DNA+repair+protein+RAD51+homolog+1&column=ki&startPg=0&Increment=50&submit=Search

> <Ligand HET ID in PDB>


> <PDB ID(s) for Ligand-Target Complex>


> <PubChem CID of Ligand>
137411700

> <PubChem SID of Ligand>
469681111

> <ChEBI ID of Ligand>


> <ChEMBL ID of Ligand>


> <DrugBank ID of Ligand>


> <IUPHAR_GRAC ID of Ligand>


> <KEGG ID of Ligand>


> <ZINC ID of Ligand>


> <Number of Protein Chains in Target (bigger than 1 implies a multichain complex)>
1

> <BindingDB Target Chain Sequence>
MAMQMQLEANADTSVEEESFGPQPISRLEQCGINANDVKKLEEAGFHTVEAVAYAPKKELINIKGISEAKADKILAEAAKLVPMGFTTATEFHQRRSEIIQITTGSKELDKLLQGGIETGSITEMFGEFRTGKTQICHTLAVTCQLPIDRGGGEGKAMYIDTEGTFRPERLLAVAERYGLSGSDVLDNVAYARAFNTDHQTQLLYQASAMMVESRYALLIVDSATALYRTDYSGRGELSARQMHLARFLRMLLRLADEFGVAVVITNQVVAQVDGAAMFAADPKKPIGGNIIAHASTTRLYLRKGRGETRICKIYDSPCLPEAEAMFAINADGVGDAKD

> <PDB ID(s) of Target Chain>
1N0W,5JZC,5NP7,5NWL,8BQ2,8BR2,8BSC

> <UniProt (SwissProt) Recommended Name of Target Chain>
DNA repair protein RAD51 homolog 1

> <UniProt (SwissProt) Entry Name of Target Chain>
RAD51_HUMAN

> <UniProt (SwissProt) Primary ID of Target Chain>
Q06609

> <UniProt (SwissProt) Secondary ID(s) of Target Chain>
B0FXP0 B2R8T6 Q6FHX9 Q6ZNA8 Q9BV60

> <UniProt (SwissProt) Alternative ID(s) of Target Chain>


> <UniProt (TrEMBL) Submitted Name of Target Chain>


> <UniProt (TrEMBL) Entry Name of Target Chain>


> <UniProt (TrEMBL) Primary ID of Target Chain>


> <UniProt (TrEMBL) Secondary ID(s) of Target Chain>


> <UniProt (TrEMBL) Alternative ID(s) of Target Chain>


$$$$
00275001.cdx
  Mrv0541 07212217012D          

 44 46  0  0  0  0            999 V2000
   -3.5223   -0.8655    0.0000 C   0  0  0  0  0  0  0  0  0  0  0  0
   -3.5223   -1.6905    0.0000 C   0  0  0  0  0  0  0  0  0  0  0  0
   -2.8078   -2.1030    0.0000 C   0  0  0  0  0  0  0  0  0  0  0  0
   -2.0933   -1.6905    0.0000 C   0  0  0  0  0  0  0  0  0  0  0  0
   -2.0933   -0.8655    0.0000 C   0  0  0  0  0  0  0  0  0  0  0  0
   -2.8078   -0.4530    0.0000 C   0  0  0  0  0  0  0  0  0  0  0  0
   -4.2367   -2.1030    0.0000 N   0  0  0  0  0  0  0  0  0  0  0  0
   -4.9512   -1.6905    0.0000 C   0  0  0  0  0  0  0  0  0  0  0  0
   -5.6657   -2.1030    0.0000 C   0  0  0  0  0  0  0  0  0  0  0  0
   -4.9512   -0.8655    0.0000 O   0  0  0  0  0  0  0  0  0  0  0  0
   -1.3789   -2.1030    0.0000 S   0  0  0  0  0  0  0  0  0  0  0  0
   -0.6644   -2.5155    0.0000 N   0  0  0  0  0  0  0  0  0  0  0  0
   -0.9664   -1.3885    0.0000 O   0  0  0  0  0  0  0  0  0  0  0  0
   -1.7914   -2.8174    0.0000 O   0  0  0  0  0  0  0  0  0  0  0  0
    0.0501   -2.1030    0.0000 C   0  0  0  0  0  0  0  0  0  0  0  0
    0.7646   -2.5155    0.0000 C   0  0  0  0  0  0  0  0  0  0  0  0
    0.0501   -1.2780    0.0000 C   0  0  0  0  0  0  0  0  0  0  0  0
    0.7646   -1.6905    0.0000 C   0  0  0  0  0  0  0  0  0  0  0  0
   -1.3789    0.3720    0.0000 N   0  0  0  0  0  0  0  0  0  0  0  0
   -1.3789   -0.4530    0.0000 C   0  0  0  0  0  0  0  0  0  0  0  0
   -0.5942   -0.7079    0.0000 S   0  0  0  0  0  0  0  0  0  0  0  0
   -0.1093   -0.0405    0.0000 C   0  0  0  0  0  0  0  0  0  0  0  0
   -0.5942    0.6270    0.0000 C   0  0  0  0  0  0  0  0  0  0  0  0
    0.7157   -0.0405    0.0000 C   0  0  0  0  0  0  0  0  0  0  0  0
    1.1282   -0.7549    0.0000 C   0  0  0  0  0  0  0  0  0  0  0  0
    1.9532   -0.7549    0.0000 C   0  0  0  0  0  0  0  0  0  0  0  0
    2.3657   -0.0405    0.0000 C   0  0  0  0  0  0  0  0  0  0  0  0
    1.9532    0.6740    0.0000 C   0  0  0  0  0  0  0  0  0  0  0  0
    1.1282    0.6740    0.0000 C   0  0  0  0  0  0  0  0  0  0  0  0
    3.1907   -0.0405    0.0000 N   0  0  0  0  0  0  0  0  0  0  0  0
    3.6032   -0.7549    0.0000 C   0  0  0  0  0  0  0  0  0  0  0  0
    4.4282   -0.7549    0.0000 N   0  0  0  0  0  0  0  0  0  0  0  0
    3.1907   -1.4694    0.0000 S   0  0  0  0  0  0  0  0  0  0  0  0
    4.8407   -0.0405    0.0000 C   0  0  0  0  0  0  0  0  0  0  0  0
    5.6657   -0.0405    0.0000 C   0  0  0  0  0  0  0  0  0  0  0  0
    4.4282    0.6740    0.0000 C   0  0  0  0  0  0  0  0  0  0  0  0
    0.7157    1.3885    0.0000 S   0  0  0  0  0  0  0  0  0  0  0  0
    0.3032    2.1030    0.0000 N   0  0  0  0  0  0  0  0  0  0  0  0
    1.4302    1.8010    0.0000 O   0  0  0  0  0  0  0  0  0  0  0  0
    0.0012    0.9760    0.0000 O   0  0  0  0  0  0  0  0  0  0  0  0
   -0.5218    2.1030    0.0000 C   0  0  0  0  0  0  0  0  0  0  0  0
   -0.9343    2.8174    0.0000 C   0  0  0  0  0  0  0  0  0  0  0  0
   -0.9343    1.3885    0.0000 C   0  0  0  0  0  0  0  0  0  0  0  0
   -1.3468    2.1030    0.0000 C   0  0  0  0  0  0  0  0  0  0  0  0
  1  2  4  0  0  0  0
  2  3  4  0  0  0  0
  3  4  4  0  0  0  0
  4  5  4  0  0  0  0
  5  6  4  0  0  0  0
  6  1  4  0  0  0  0
  2  7  1  0  0  0  0
  7  8  1  0  0  0  0
  8  9  1  0  0  0  0
  8 10  2  0  0  0  0
  4 11  1  0  0  0  0
 11 12  1  0  0  0  0
 11 13  2  0  0  0  0
 11 14  2  0  0  0  0
 12 15  1  0  0  0  0
 15 16  1  0  0  0  0
 15 17  1  0  0  0  0
 15 18  1  0  0  0  0
  5 20  1  0  0  0  0
 19 20  4  0  0  0  0
 20 21  4  0  0  0  0
 21 22  4  0  0  0  0
 22 23  4  0  0  0  0
 23 19  4  0  0  0  0
 22 24  1  0  0  0  0
 24 25  4  0  0  0  0
 25 26  4  0  0  0  0
 26 27  4  0  0  0  0
 27 28  4  0  0  0  0
 28 29  4  0  0  0  0
 29 24  4  0  0  0  0
 27 30  1  0  0  0  0
 30 31  1  0  0  0  0
 31 32  1  0  0  0  0
 31 33  2  0  0  0  0
 32 34  1  0  0  0  0
 34 35  1  0  0  0  0
 34 36  1  0  0  0  0
 29 37  1  0  0  0  0
 37 38  1  0  0  0  0
 37 39  2  0  0  0  0
 37 40  2  0  0  0  0
 38 41  1  0  0  0  0
 41 42  1  0  0  0  0
 41 43  1  0  0  0  0
 41 44  1  0  0  0  0
M  END
> <From>
www.bindingDB.org

> <BindingDB Reactant_set_id>
1155265

> <Ligand InChI>
InChI=1S/C29H40N6O5S4/c1-17(2)31-27(41)33-20-10-12-21(24(15-20)43(37,38)34-28(4,5)6)23-16-30-26(42-23)22-13-11-19(32-18(3)36)14-25(22)44(39,40)35-29(7,8)9/h10-17,34-35H,1-9H3,(H,32,36)(H2,31,33,41)

> <Ligand InChI Key>
LCCBACBOBNSNCZ-UHFFFAOYSA-N

> <BindingDB MonomerID>
546416

> <BindingDB Ligand Name>
US11291655, No E21

> <Target Name>
DNA repair protein RAD51 homolog 1

> <Target Source Organism According to Curator or DataSource>
Homo sapiens

> <Ki (nM)>


> <IC50 (nM)>


> <Kd (nM)>


> <EC50 (nM)>
<5000

> <kon (M-1-s-1)>


> <koff (s-1)>


> <pH>


> <Temp C>


> <Curation/DataSource>
US Patent

> <Article DOI>


> <BindingDB Entry DOI>
10.7270/Q2NG4TV0

> <PMID>


> <PubChem AID>
aid1806421

> <Patent Number>
US11291655

> <Authors>
Castro, AC; McComas, CC; Vacca, J

> <Date of publication>
4/5/2022

> <Date in BindingDB>
7/21/2022

> <Institution>
Cyteir Therapeutics, Inc.

> <Link to Ligand in BindingDB>
http://www.bindingdb.org/bind/chemsearch/marvin/MolStructure.jsp?monomerid=546416

> <Link to Ligand-Target Pair in BindingDB>
http://www.bindingdb.org/jsp/dbsearch/PrimarySearch_ki.jsp?energyterm=kJ/mole&tag=pol&polymerid=4676&target=DNA+repair+protein+RAD51+homolog+1&column=ki&startPg=0&Increment=50&submit=Search

> <Link to Ligand-Target Pair in BindingDB>
http://www.bindingdb.org/jsp/dbsearch/PrimarySearch_ki.jsp?energyterm=kJ/mole&tag=r21&monomerid=546416&enzyme=DNA+repair+protein+RAD51+homolog+1&column=ki&startPg=0&Increment=50&submit=Search

> <Ligand HET ID in PDB>


> <PDB ID(s) for Ligand-Target Complex>


> <PubChem CID of Ligand>
137411699

> <PubChem SID of Ligand>
469681112

> <ChEBI ID of Ligand>


> <ChEMBL ID of Ligand>


> <DrugBank ID of Ligand>


> <IUPHAR_GRAC ID of Ligand>


> <KEGG ID of Ligand>


> <ZINC ID of Ligand>


> <Number of Protein Chains in Target (bigger than 1 implies a multichain complex)>
1

> <BindingDB Target Chain Sequence>
MAMQMQLEANADTSVEEESFGPQPISRLEQCGINANDVKKLEEAGFHTVEAVAYAPKKELINIKGISEAKADKILAEAAKLVPMGFTTATEFHQRRSEIIQITTGSKELDKLLQGGIETGSITEMFGEFRTGKTQICHTLAVTCQLPIDRGGGEGKAMYIDTEGTFRPERLLAVAERYGLSGSDVLDNVAYARAFNTDHQTQLLYQASAMMVESRYALLIVDSATALYRTDYSGRGELSARQMHLARFLRMLLRLADEFGVAVVITNQVVAQVDGAAMFAADPKKPIGGNIIAHASTTRLYLRKGRGETRICKIYDSPCLPEAEAMFAINADGVGDAKD

> <PDB ID(s) of Target Chain>
1N0W,5JZC,5NP7,5NWL,8BQ2,8BR2,8BSC

> <UniProt (SwissProt) Recommended Name of Target Chain>
DNA repair protein RAD51 homolog 1

> <UniProt (SwissProt) Entry Name of Target Chain>
RAD51_HUMAN

> <UniProt (SwissProt) Primary ID of Target Chain>
Q06609

> <UniProt (SwissProt) Secondary ID(s) of Target Chain>
B0FXP0 B2R8T6 Q6FHX9 Q6ZNA8 Q9BV60

> <UniProt (SwissProt) Alternative ID(s) of Target Chain>


> <UniProt (TrEMBL) Submitted Name of Target Chain>


> <UniProt (TrEMBL) Entry Name of Target Chain>


> <UniProt (TrEMBL) Primary ID of Target Chain>


> <UniProt (TrEMBL) Secondary ID(s) of Target Chain>


> <UniProt (TrEMBL) Alternative ID(s) of Target Chain>


$$$$
00276001.cdx
  Mrv0541 07212217012D          

 41 43  0  0  0  0            999 V2000
   -2.9035   -0.8655    0.0000 C   0  0  0  0  0  0  0  0  0  0  0  0
   -2.9035   -1.6905    0.0000 C   0  0  0  0  0  0  0  0  0  0  0  0
   -2.1891   -2.1030    0.0000 C   0  0  0  0  0  0  0  0  0  0  0  0
   -1.4746   -1.6905    0.0000 C   0  0  0  0  0  0  0  0  0  0  0  0
   -1.4746   -0.8655    0.0000 C   0  0  0  0  0  0  0  0  0  0  0  0
   -2.1891   -0.4530    0.0000 C   0  0  0  0  0  0  0  0  0  0  0  0
   -3.6180   -2.1030    0.0000 N   0  0  0  0  0  0  0  0  0  0  0  0
   -4.3325   -1.6905    0.0000 C   0  0  0  0  0  0  0  0  0  0  0  0
   -5.0469   -2.1030    0.0000 C   0  0  0  0  0  0  0  0  0  0  0  0
   -4.3325   -0.8655    0.0000 O   0  0  0  0  0  0  0  0  0  0  0  0
   -0.7601   -2.1030    0.0000 S   0  0  0  0  0  0  0  0  0  0  0  0
   -0.0456   -2.5155    0.0000 N   0  0  0  0  0  0  0  0  0  0  0  0
   -0.3476   -1.3885    0.0000 O   0  0  0  0  0  0  0  0  0  0  0  0
   -1.1726   -2.8174    0.0000 O   0  0  0  0  0  0  0  0  0  0  0  0
    0.6688   -2.1030    0.0000 C   0  0  0  0  0  0  0  0  0  0  0  0
    1.3833   -2.5155    0.0000 C   0  0  0  0  0  0  0  0  0  0  0  0
    0.6688   -1.2780    0.0000 C   0  0  0  0  0  0  0  0  0  0  0  0
    1.3833   -1.6905    0.0000 C   0  0  0  0  0  0  0  0  0  0  0  0
   -0.7601    0.3720    0.0000 N   0  0  0  0  0  0  0  0  0  0  0  0
   -0.7601   -0.4530    0.0000 C   0  0  0  0  0  0  0  0  0  0  0  0
    0.0245   -0.7079    0.0000 S   0  0  0  0  0  0  0  0  0  0  0  0
    0.5094   -0.0405    0.0000 C   0  0  0  0  0  0  0  0  0  0  0  0
    0.0245    0.6270    0.0000 C   0  0  0  0  0  0  0  0  0  0  0  0
    1.3344   -0.0405    0.0000 C   0  0  0  0  0  0  0  0  0  0  0  0
    1.7469   -0.7549    0.0000 C   0  0  0  0  0  0  0  0  0  0  0  0
    2.5719   -0.7549    0.0000 C   0  0  0  0  0  0  0  0  0  0  0  0
    2.9844   -0.0405    0.0000 C   0  0  0  0  0  0  0  0  0  0  0  0
    2.5719    0.6740    0.0000 C   0  0  0  0  0  0  0  0  0  0  0  0
    1.7469    0.6740    0.0000 C   0  0  0  0  0  0  0  0  0  0  0  0
    3.8094   -0.0405    0.0000 N   0  0  0  0  0  0  0  0  0  0  0  0
    4.2219   -0.7549    0.0000 C   0  0  0  0  0  0  0  0  0  0  0  0
    5.0469   -0.7549    0.0000 C   0  0  0  0  0  0  0  0  0  0  0  0
    3.8094   -1.4694    0.0000 O   0  0  0  0  0  0  0  0  0  0  0  0
    1.3344    1.3885    0.0000 S   0  0  0  0  0  0  0  0  0  0  0  0
    0.9219    2.1030    0.0000 N   0  0  0  0  0  0  0  0  0  0  0  0
    2.0489    1.8010    0.0000 O   0  0  0  0  0  0  0  0  0  0  0  0
    0.6200    0.9760    0.0000 O   0  0  0  0  0  0  0  0  0  0  0  0
    0.0969    2.1030    0.0000 C   0  0  0  0  0  0  0  0  0  0  0  0
   -0.3156    2.8174    0.0000 C   0  0  0  0  0  0  0  0  0  0  0  0
   -0.3156    1.3885    0.0000 C   0  0  0  0  0  0  0  0  0  0  0  0
   -0.7281    2.1030    0.0000 C   0  0  0  0  0  0  0  0  0  0  0  0
  1  2  4  0  0  0  0
  2  3  4  0  0  0  0
  3  4  4  0  0  0  0
  4  5  4  0  0  0  0
  5  6  4  0  0  0  0
  6  1  4  0  0  0  0
  2  7  1  0  0  0  0
  7  8  1  0  0  0  0
  8  9  1  0  0  0  0
  8 10  2  0  0  0  0
  4 11  1  0  0  0  0
 11 12  1  0  0  0  0
 11 13  2  0  0  0  0
 11 14  2  0  0  0  0
 12 15  1  0  0  0  0
 15 16  1  0  0  0  0
 15 17  1  0  0  0  0
 15 18  1  0  0  0  0
  5 20  1  0  0  0  0
 19 20  4  0  0  0  0
 20 21  4  0  0  0  0
 21 22  4  0  0  0  0
 22 23  4  0  0  0  0
 23 19  4  0  0  0  0
 22 24  1  0  0  0  0
 24 25  4  0  0  0  0
 25 26  4  0  0  0  0
 26 27  4  0  0  0  0
 27 28  4  0  0  0  0
 28 29  4  0  0  0  0
 29 24  4  0  0  0  0
 27 30  1  0  0  0  0
 30 31  1  0  0  0  0
 31 32  1  0  0  0  0
 31 33  2  0  0  0  0
 29 34  1  0  0  0  0
 34 35  1  0  0  0  0
 34 36  2  0  0  0  0
 34 37  2  0  0  0  0
 35 38  1  0  0  0  0
 38 39  1  0  0  0  0
 38 40  1  0  0  0  0
 38 41  1  0  0  0  0
M  END
> <From>
www.bindingDB.org

> <BindingDB Reactant_set_id>
1155266

> <Ligand InChI>
InChI=1S/C27H35N5O6S3/c1-16(33)29-18-9-11-20(23(13-18)40(35,36)31-26(3,4)5)22-15-28-25(39-22)21-12-10-19(30-17(2)34)14-24(21)41(37,38)32-27(6,7)8/h9-15,31-32H,1-8H3,(H,29,33)(H,30,34)

> <Ligand InChI Key>
CXTGFUPNQIBEFJ-UHFFFAOYSA-N

> <BindingDB MonomerID>
546417

> <BindingDB Ligand Name>
US11291655, No E3

> <Target Name>
DNA repair protein RAD51 homolog 1

> <Target Source Organism According to Curator or DataSource>
Homo sapiens

> <Ki (nM)>


> <IC50 (nM)>


> <Kd (nM)>


> <EC50 (nM)>
<10000

> <kon (M-1-s-1)>


> <koff (s-1)>


> <pH>


> <Temp C>


> <Curation/DataSource>
US Patent

> <Article DOI>


> <BindingDB Entry DOI>
10.7270/Q2NG4TV0

> <PMID>


> <PubChem AID>
aid1806421

> <Patent Number>
US11291655

> <Authors>
Castro, AC; McComas, CC; Vacca, J

> <Date of publication>
4/5/2022

> <Date in BindingDB>
7/21/2022

> <Institution>
Cyteir Therapeutics, Inc.

> <Link to Ligand in BindingDB>
http://www.bindingdb.org/bind/chemsearch/marvin/MolStructure.jsp?monomerid=546417

> <Link to Ligand-Target Pair in BindingDB>
http://www.bindingdb.org/jsp/dbsearch/PrimarySearch_ki.jsp?energyterm=kJ/mole&tag=pol&polymerid=4676&target=DNA+repair+protein+RAD51+homolog+1&column=ki&startPg=0&Increment=50&submit=Search

> <Link to Ligand-Target Pair in BindingDB>
http://www.bindingdb.org/jsp/dbsearch/PrimarySearch_ki.jsp?energyterm=kJ/mole&tag=r21&monomerid=546417&enzyme=DNA+repair+protein+RAD51+homolog+1&column=ki&startPg=0&Increment=50&submit=Search

> <Ligand HET ID in PDB>


> <PDB ID(s) for Ligand-Target Complex>


> <PubChem CID of Ligand>
137411810

> <PubChem SID of Ligand>
469681113

> <ChEBI ID of Ligand>


> <ChEMBL ID of Ligand>


> <DrugBank ID of Ligand>


> <IUPHAR_GRAC ID of Ligand>


> <KEGG ID of Ligand>


> <ZINC ID of Ligand>


> <Number of Protein Chains in Target (bigger than 1 implies a multichain complex)>
1

> <BindingDB Target Chain Sequence>
MAMQMQLEANADTSVEEESFGPQPISRLEQCGINANDVKKLEEAGFHTVEAVAYAPKKELINIKGISEAKADKILAEAAKLVPMGFTTATEFHQRRSEIIQITTGSKELDKLLQGGIETGSITEMFGEFRTGKTQICHTLAVTCQLPIDRGGGEGKAMYIDTEGTFRPERLLAVAERYGLSGSDVLDNVAYARAFNTDHQTQLLYQASAMMVESRYALLIVDSATALYRTDYSGRGELSARQMHLARFLRMLLRLADEFGVAVVITNQVVAQVDGAAMFAADPKKPIGGNIIAHASTTRLYLRKGRGETRICKIYDSPCLPEAEAMFAINADGVGDAKD

> <PDB ID(s) of Target Chain>
1N0W,5JZC,5NP7,5NWL,8BQ2,8BR2,8BSC

> <UniProt (SwissProt) Recommended Name of Target Chain>
DNA repair protein RAD51 homolog 1

> <UniProt (SwissProt) Entry Name of Target Chain>
RAD51_HUMAN

> <UniProt (SwissProt) Primary ID of Target Chain>
Q06609

> <UniProt (SwissProt) Secondary ID(s) of Target Chain>
B0FXP0 B2R8T6 Q6FHX9 Q6ZNA8 Q9BV60

> <UniProt (SwissProt) Alternative ID(s) of Target Chain>


> <UniProt (TrEMBL) Submitted Name of Target Chain>


> <UniProt (TrEMBL) Entry Name of Target Chain>


> <UniProt (TrEMBL) Primary ID of Target Chain>


> <UniProt (TrEMBL) Secondary ID(s) of Target Chain>


> <UniProt (TrEMBL) Alternative ID(s) of Target Chain>


$$$$
00277001.cdx
  Mrv0541 07212217012D          

 30 32  0  0  0  0            999 V2000
   -2.2848   -1.2227    0.0000 C   0  0  0  0  0  0  0  0  0  0  0  0
   -2.2848   -2.0477    0.0000 C   0  0  0  0  0  0  0  0  0  0  0  0
   -1.5703   -2.4602    0.0000 C   0  0  0  0  0  0  0  0  0  0  0  0
   -0.8558   -2.0477    0.0000 C   0  0  0  0  0  0  0  0  0  0  0  0
   -0.8558   -1.2227    0.0000 C   0  0  0  0  0  0  0  0  0  0  0  0
   -1.5703   -0.8102    0.0000 C   0  0  0  0  0  0  0  0  0  0  0  0
   -2.9992   -2.4602    0.0000 N   0  0  0  0  0  0  0  0  0  0  0  0
   -3.7137   -2.0477    0.0000 C   0  0  0  0  0  0  0  0  0  0  0  0
   -4.4282   -2.4602    0.0000 C   0  0  0  0  0  0  0  0  0  0  0  0
   -3.7137   -1.2227    0.0000 O   0  0  0  0  0  0  0  0  0  0  0  0
   -0.1414    0.0148    0.0000 N   0  0  0  0  0  0  0  0  0  0  0  0
   -0.1414   -0.8102    0.0000 C   0  0  0  0  0  0  0  0  0  0  0  0
    0.6433   -1.0651    0.0000 S   0  0  0  0  0  0  0  0  0  0  0  0
    1.1282   -0.3977    0.0000 C   0  0  0  0  0  0  0  0  0  0  0  0
    0.6433    0.2697    0.0000 C   0  0  0  0  0  0  0  0  0  0  0  0
    1.9532   -0.3977    0.0000 C   0  0  0  0  0  0  0  0  0  0  0  0
    2.3657   -1.1122    0.0000 C   0  0  0  0  0  0  0  0  0  0  0  0
    3.1907   -1.1122    0.0000 C   0  0  0  0  0  0  0  0  0  0  0  0
    3.6032   -0.3977    0.0000 C   0  0  0  0  0  0  0  0  0  0  0  0
    3.1907    0.3168    0.0000 C   0  0  0  0  0  0  0  0  0  0  0  0
    2.3657    0.3168    0.0000 C   0  0  0  0  0  0  0  0  0  0  0  0
    4.4282   -0.3977    0.0000 N   0  0  0  0  0  0  0  0  0  0  0  0
    1.9532    1.0313    0.0000 S   0  0  0  0  0  0  0  0  0  0  0  0
    1.5407    1.7457    0.0000 N   0  0  0  0  0  0  0  0  0  0  0  0
    2.6677    1.4438    0.0000 O   0  0  0  0  0  0  0  0  0  0  0  0
    1.2387    0.6188    0.0000 O   0  0  0  0  0  0  0  0  0  0  0  0
    0.7157    1.7457    0.0000 C   0  0  0  0  0  0  0  0  0  0  0  0
    0.3032    2.4602    0.0000 C   0  0  0  0  0  0  0  0  0  0  0  0
    0.3032    1.0313    0.0000 C   0  0  0  0  0  0  0  0  0  0  0  0
   -0.1093    1.7457    0.0000 C   0  0  0  0  0  0  0  0  0  0  0  0
  1  2  4  0  0  0  0
  2  3  4  0  0  0  0
  3  4  4  0  0  0  0
  4  5  4  0  0  0  0
  5  6  4  0  0  0  0
  6  1  4  0  0  0  0
  2  7  1  0  0  0  0
  7  8  1  0  0  0  0
  8  9  1  0  0  0  0
  8 10  2  0  0  0  0
  5 12  1  0  0  0  0
 11 12  4  0  0  0  0
 12 13  4  0  0  0  0
 13 14  4  0  0  0  0
 14 15  4  0  0  0  0
 15 11  4  0  0  0  0
 14 16  1  0  0  0  0
 16 17  4  0  0  0  0
 17 18  4  0  0  0  0
 18 19  4  0  0  0  0
 19 20  4  0  0  0  0
 20 21  4  0  0  0  0
 21 16  4  0  0  0  0
 19 22  1  0  0  0  0
 21 23  1  0  0  0  0
 23 24  1  0  0  0  0
 23 25  2  0  0  0  0
 23 26  2  0  0  0  0
 24 27  1  0  0  0  0
 27 28  1  0  0  0  0
 27 29  1  0  0  0  0
 27 30  1  0  0  0  0
M  END
> <From>
www.bindingDB.org

> <BindingDB Reactant_set_id>
1155267

> <Ligand InChI>
InChI=1S/C21H24N4O3S2/c1-13(26)24-16-8-5-14(6-9-16)20-23-12-18(29-20)17-10-7-15(22)11-19(17)30(27,28)25-21(2,3)4/h5-12,25H,22H2,1-4H3,(H,24,26)

> <Ligand InChI Key>
NBGFOTSUXWGPSC-UHFFFAOYSA-N

> <BindingDB MonomerID>
546418

> <BindingDB Ligand Name>
US11291655, No E4

> <Target Name>
DNA repair protein RAD51 homolog 1

> <Target Source Organism According to Curator or DataSource>
Homo sapiens

> <Ki (nM)>


> <IC50 (nM)>


> <Kd (nM)>


> <EC50 (nM)>
>10000

> <kon (M-1-s-1)>


> <koff (s-1)>


> <pH>


> <Temp C>


> <Curation/DataSource>
US Patent

> <Article DOI>


> <BindingDB Entry DOI>
10.7270/Q2NG4TV0

> <PMID>


> <PubChem AID>
aid1806421

> <Patent Number>
US11291655

> <Authors>
Castro, AC; McComas, CC; Vacca, J

> <Date of publication>
4/5/2022

> <Date in BindingDB>
7/21/2022

> <Institution>
Cyteir Therapeutics, Inc.

> <Link to Ligand in BindingDB>
http://www.bindingdb.org/bind/chemsearch/marvin/MolStructure.jsp?monomerid=546418

> <Link to Ligand-Target Pair in BindingDB>
http://www.bindingdb.org/jsp/dbsearch/PrimarySearch_ki.jsp?energyterm=kJ/mole&tag=pol&polymerid=4676&target=DNA+repair+protein+RAD51+homolog+1&column=ki&startPg=0&Increment=50&submit=Search

> <Link to Ligand-Target Pair in BindingDB>
http://www.bindingdb.org/jsp/dbsearch/PrimarySearch_ki.jsp?energyterm=kJ/mole&tag=r21&monomerid=546418&enzyme=DNA+repair+protein+RAD51+homolog+1&column=ki&startPg=0&Increment=50&submit=Search

> <Ligand HET ID in PDB>


> <PDB ID(s) for Ligand-Target Complex>


> <PubChem CID of Ligand>
137411725

> <PubChem SID of Ligand>
469681114

> <ChEBI ID of Ligand>


> <ChEMBL ID of Ligand>


> <DrugBank ID of Ligand>


> <IUPHAR_GRAC ID of Ligand>


> <KEGG ID of Ligand>


> <ZINC ID of Ligand>


> <Number of Protein Chains in Target (bigger than 1 implies a multichain complex)>
1

> <BindingDB Target Chain Sequence>
MAMQMQLEANADTSVEEESFGPQPISRLEQCGINANDVKKLEEAGFHTVEAVAYAPKKELINIKGISEAKADKILAEAAKLVPMGFTTATEFHQRRSEIIQITTGSKELDKLLQGGIETGSITEMFGEFRTGKTQICHTLAVTCQLPIDRGGGEGKAMYIDTEGTFRPERLLAVAERYGLSGSDVLDNVAYARAFNTDHQTQLLYQASAMMVESRYALLIVDSATALYRTDYSGRGELSARQMHLARFLRMLLRLADEFGVAVVITNQVVAQVDGAAMFAADPKKPIGGNIIAHASTTRLYLRKGRGETRICKIYDSPCLPEAEAMFAINADGVGDAKD

> <PDB ID(s) of Target Chain>
1N0W,5JZC,5NP7,5NWL,8BQ2,8BR2,8BSC

> <UniProt (SwissProt) Recommended Name of Target Chain>
DNA repair protein RAD51 homolog 1

> <UniProt (SwissProt) Entry Name of Target Chain>
RAD51_HUMAN

> <UniProt (SwissProt) Primary ID of Target Chain>
Q06609

> <UniProt (SwissProt) Secondary ID(s) of Target Chain>
B0FXP0 B2R8T6 Q6FHX9 Q6ZNA8 Q9BV60

> <UniProt (SwissProt) Alternative ID(s) of Target Chain>


> <UniProt (TrEMBL) Submitted Name of Target Chain>


> <UniProt (TrEMBL) Entry Name of Target Chain>


> <UniProt (TrEMBL) Primary ID of Target Chain>


> <UniProt (TrEMBL) Secondary ID(s) of Target Chain>


> <UniProt (TrEMBL) Alternative ID(s) of Target Chain>


$$$$
00278001.cdx
  Mrv0541 07212217012D          

 36 38  0  0  0  0            999 V2000
   -3.5223   -1.2227    0.0000 C   0  0  0  0  0  0  0  0  0  0  0  0
   -3.5223   -2.0477    0.0000 C   0  0  0  0  0  0  0  0  0  0  0  0
   -2.8078   -2.4602    0.0000 C   0  0  0  0  0  0  0  0  0  0  0  0
   -2.0933   -2.0477    0.0000 C   0  0  0  0  0  0  0  0  0  0  0  0
   -2.0933   -1.2227    0.0000 C   0  0  0  0  0  0  0  0  0  0  0  0
   -2.8078   -0.8102    0.0000 C   0  0  0  0  0  0  0  0  0  0  0  0
   -4.2367   -2.4602    0.0000 N   0  0  0  0  0  0  0  0  0  0  0  0
   -4.9512   -2.0477    0.0000 C   0  0  0  0  0  0  0  0  0  0  0  0
   -5.6657   -2.4602    0.0000 C   0  0  0  0  0  0  0  0  0  0  0  0
   -4.9512   -1.2227    0.0000 O   0  0  0  0  0  0  0  0  0  0  0  0
   -1.3789    0.0148    0.0000 N   0  0  0  0  0  0  0  0  0  0  0  0
   -1.3789   -0.8102    0.0000 C   0  0  0  0  0  0  0  0  0  0  0  0
   -0.5942   -1.0651    0.0000 S   0  0  0  0  0  0  0  0  0  0  0  0
   -0.1093   -0.3977    0.0000 C   0  0  0  0  0  0  0  0  0  0  0  0
   -0.5942    0.2697    0.0000 C   0  0  0  0  0  0  0  0  0  0  0  0
    0.7157   -0.3977    0.0000 C   0  0  0  0  0  0  0  0  0  0  0  0
    1.1282   -1.1122    0.0000 C   0  0  0  0  0  0  0  0  0  0  0  0
    1.9532   -1.1122    0.0000 C   0  0  0  0  0  0  0  0  0  0  0  0
    2.3657   -0.3977    0.0000 C   0  0  0  0  0  0  0  0  0  0  0  0
    1.9532    0.3168    0.0000 C   0  0  0  0  0  0  0  0  0  0  0  0
    1.1282    0.3168    0.0000 C   0  0  0  0  0  0  0  0  0  0  0  0
    3.1907   -0.3977    0.0000 N   0  0  0  0  0  0  0  0  0  0  0  0
    3.6032   -1.1122    0.0000 C   0  0  0  0  0  0  0  0  0  0  0  0
    4.4282   -1.1122    0.0000 N   0  0  0  0  0  0  0  0  0  0  0  0
    3.1907   -1.8266    0.0000 S   0  0  0  0  0  0  0  0  0  0  0  0
    4.8407   -0.3977    0.0000 C   0  0  0  0  0  0  0  0  0  0  0  0
    5.6657   -0.3977    0.0000 C   0  0  0  0  0  0  0  0  0  0  0  0
    4.4282    0.3168    0.0000 C   0  0  0  0  0  0  0  0  0  0  0  0
    0.7157    1.0313    0.0000 S   0  0  0  0  0  0  0  0  0  0  0  0
    0.3032    1.7457    0.0000 N   0  0  0  0  0  0  0  0  0  0  0  0
    1.4302    1.4438    0.0000 O   0  0  0  0  0  0  0  0  0  0  0  0
    0.0012    0.6188    0.0000 O   0  0  0  0  0  0  0  0  0  0  0  0
   -0.5218    1.7457    0.0000 C   0  0  0  0  0  0  0  0  0  0  0  0
   -0.9343    2.4602    0.0000 C   0  0  0  0  0  0  0  0  0  0  0  0
   -0.9343    1.0313    0.0000 C   0  0  0  0  0  0  0  0  0  0  0  0
   -1.3468    1.7457    0.0000 C   0  0  0  0  0  0  0  0  0  0  0  0
  1  2  4  0  0  0  0
  2  3  4  0  0  0  0
  3  4  4  0  0  0  0
  4  5  4  0  0  0  0
  5  6  4  0  0  0  0
  6  1  4  0  0  0  0
  2  7  1  0  0  0  0
  7  8  1  0  0  0  0
  8  9  1  0  0  0  0
  8 10  2  0  0  0  0
  5 12  1  0  0  0  0
 11 12  4  0  0  0  0
 12 13  4  0  0  0  0
 13 14  4  0  0  0  0
 14 15  4  0  0  0  0
 15 11  4  0  0  0  0
 14 16  1  0  0  0  0
 16 17  4  0  0  0  0
 17 18  4  0  0  0  0
 18 19  4  0  0  0  0
 19 20  4  0  0  0  0
 20 21  4  0  0  0  0
 21 16  4  0  0  0  0
 19 22  1  0  0  0  0
 22 23  1  0  0  0  0
 23 24  1  0  0  0  0
 23 25  2  0  0  0  0
 24 26  1  0  0  0  0
 26 27  1  0  0  0  0
 26 28  1  0  0  0  0
 21 29  1  0  0  0  0
 29 30  1  0  0  0  0
 29 31  2  0  0  0  0
 29 32  2  0  0  0  0
 30 33  1  0  0  0  0
 33 34  1  0  0  0  0
 33 35  1  0  0  0  0
 33 36  1  0  0  0  0
M  END
> <From>
www.bindingDB.org

> <BindingDB Reactant_set_id>
1155268

> <Ligand InChI>
InChI=1S/C25H31N5O3S3/c1-15(2)27-24(34)29-19-11-12-20(22(13-19)36(32,33)30-25(4,5)6)21-14-26-23(35-21)17-7-9-18(10-8-17)28-16(3)31/h7-15,30H,1-6H3,(H,28,31)(H2,27,29,34)

> <Ligand InChI Key>
JNWIFBXAMSIMNR-UHFFFAOYSA-N

> <BindingDB MonomerID>
546419

> <BindingDB Ligand Name>
US11291655, No E5

> <Target Name>
DNA repair protein RAD51 homolog 1

> <Target Source Organism According to Curator or DataSource>
Homo sapiens

> <Ki (nM)>


> <IC50 (nM)>


> <Kd (nM)>


> <EC50 (nM)>
<10000

> <kon (M-1-s-1)>


> <koff (s-1)>


> <pH>


> <Temp C>


> <Curation/DataSource>
US Patent

> <Article DOI>


> <BindingDB Entry DOI>
10.7270/Q2NG4TV0

> <PMID>


> <PubChem AID>
aid1806421

> <Patent Number>
US11291655

> <Authors>
Castro, AC; McComas, CC; Vacca, J

> <Date of publication>
4/5/2022

> <Date in BindingDB>
7/21/2022

> <Institution>
Cyteir Therapeutics, Inc.

> <Link to Ligand in BindingDB>
http://www.bindingdb.org/bind/chemsearch/marvin/MolStructure.jsp?monomerid=546419

> <Link to Ligand-Target Pair in BindingDB>
http://www.bindingdb.org/jsp/dbsearch/PrimarySearch_ki.jsp?energyterm=kJ/mole&tag=pol&polymerid=4676&target=DNA+repair+protein+RAD51+homolog+1&column=ki&startPg=0&Increment=50&submit=Search

> <Link to Ligand-Target Pair in BindingDB>
http://www.bindingdb.org/jsp/dbsearch/PrimarySearch_ki.jsp?energyterm=kJ/mole&tag=r21&monomerid=546419&enzyme=DNA+repair+protein+RAD51+homolog+1&column=ki&startPg=0&Increment=50&submit=Search

> <Ligand HET ID in PDB>


> <PDB ID(s) for Ligand-Target Complex>


> <PubChem CID of Ligand>
137411727

> <PubChem SID of Ligand>
469681115

> <ChEBI ID of Ligand>


> <ChEMBL ID of Ligand>


> <DrugBank ID of Ligand>


> <IUPHAR_GRAC ID of Ligand>


> <KEGG ID of Ligand>


> <ZINC ID of Ligand>


> <Number of Protein Chains in Target (bigger than 1 implies a multichain complex)>
1

> <BindingDB Target Chain Sequence>
MAMQMQLEANADTSVEEESFGPQPISRLEQCGINANDVKKLEEAGFHTVEAVAYAPKKELINIKGISEAKADKILAEAAKLVPMGFTTATEFHQRRSEIIQITTGSKELDKLLQGGIETGSITEMFGEFRTGKTQICHTLAVTCQLPIDRGGGEGKAMYIDTEGTFRPERLLAVAERYGLSGSDVLDNVAYARAFNTDHQTQLLYQASAMMVESRYALLIVDSATALYRTDYSGRGELSARQMHLARFLRMLLRLADEFGVAVVITNQVVAQVDGAAMFAADPKKPIGGNIIAHASTTRLYLRKGRGETRICKIYDSPCLPEAEAMFAINADGVGDAKD

> <PDB ID(s) of Target Chain>
1N0W,5JZC,5NP7,5NWL,8BQ2,8BR2,8BSC

> <UniProt (SwissProt) Recommended Name of Target Chain>
DNA repair protein RAD51 homolog 1

> <UniProt (SwissProt) Entry Name of Target Chain>
RAD51_HUMAN

> <UniProt (SwissProt) Primary ID of Target Chain>
Q06609

> <UniProt (SwissProt) Secondary ID(s) of Target Chain>
B0FXP0 B2R8T6 Q6FHX9 Q6ZNA8 Q9BV60

> <UniProt (SwissProt) Alternative ID(s) of Target Chain>


> <UniProt (TrEMBL) Submitted Name of Target Chain>


> <UniProt (TrEMBL) Entry Name of Target Chain>


> <UniProt (TrEMBL) Primary ID of Target Chain>


> <UniProt (TrEMBL) Secondary ID(s) of Target Chain>


> <UniProt (TrEMBL) Alternative ID(s) of Target Chain>


$$$$
00279001.cdx
  Mrv0541 07212217012D          

 38 40  0  0  0  0            999 V2000
   -2.2848   -0.8655    0.0000 C   0  0  0  0  0  0  0  0  0  0  0  0
   -2.2848   -1.6905    0.0000 C   0  0  0  0  0  0  0  0  0  0  0  0
   -1.5703   -2.1030    0.0000 C   0  0  0  0  0  0  0  0  0  0  0  0
   -0.8558   -1.6905    0.0000 C   0  0  0  0  0  0  0  0  0  0  0  0
   -0.8558   -0.8655    0.0000 C   0  0  0  0  0  0  0  0  0  0  0  0
   -1.5703   -0.4530    0.0000 C   0  0  0  0  0  0  0  0  0  0  0  0
   -2.9992   -2.1030    0.0000 N   0  0  0  0  0  0  0  0  0  0  0  0
   -3.7137   -1.6905    0.0000 C   0  0  0  0  0  0  0  0  0  0  0  0
   -4.4282   -2.1030    0.0000 C   0  0  0  0  0  0  0  0  0  0  0  0
   -3.7137   -0.8655    0.0000 O   0  0  0  0  0  0  0  0  0  0  0  0
   -0.1414   -2.1030    0.0000 S   0  0  0  0  0  0  0  0  0  0  0  0
    0.5731   -2.5155    0.0000 N   0  0  0  0  0  0  0  0  0  0  0  0
    0.2711   -1.3885    0.0000 O   0  0  0  0  0  0  0  0  0  0  0  0
   -0.5539   -2.8174    0.0000 O   0  0  0  0  0  0  0  0  0  0  0  0
    1.2876   -2.1030    0.0000 C   0  0  0  0  0  0  0  0  0  0  0  0
    2.0021   -2.5155    0.0000 C   0  0  0  0  0  0  0  0  0  0  0  0
    1.2876   -1.2780    0.0000 C   0  0  0  0  0  0  0  0  0  0  0  0
    2.0021   -1.6905    0.0000 C   0  0  0  0  0  0  0  0  0  0  0  0
   -0.1414    0.3720    0.0000 C   0  0  0  0  0  0  0  0  0  0  0  0
   -0.1414   -0.4530    0.0000 C   0  0  0  0  0  0  0  0  0  0  0  0
    0.6433   -0.7079    0.0000 S   0  0  0  0  0  0  0  0  0  0  0  0
    1.1282   -0.0405    0.0000 C   0  0  0  0  0  0  0  0  0  0  0  0
    0.6433    0.6270    0.0000 N   0  0  0  0  0  0  0  0  0  0  0  0
    1.9532   -0.0405    0.0000 C   0  0  0  0  0  0  0  0  0  0  0  0
    2.3657   -0.7549    0.0000 C   0  0  0  0  0  0  0  0  0  0  0  0
    3.1907   -0.7549    0.0000 C   0  0  0  0  0  0  0  0  0  0  0  0
    3.6032   -0.0405    0.0000 C   0  0  0  0  0  0  0  0  0  0  0  0
    3.1907    0.6740    0.0000 C   0  0  0  0  0  0  0  0  0  0  0  0
    2.3657    0.6740    0.0000 C   0  0  0  0  0  0  0  0  0  0  0  0
    4.4282   -0.0405    0.0000 N   0  0  0  0  0  0  0  0  0  0  0  0
    1.9532    1.3885    0.0000 S   0  0  0  0  0  0  0  0  0  0  0  0
    1.5407    2.1030    0.0000 N   0  0  0  0  0  0  0  0  0  0  0  0
    2.6677    1.8010    0.0000 O   0  0  0  0  0  0  0  0  0  0  0  0
    1.2387    0.9760    0.0000 O   0  0  0  0  0  0  0  0  0  0  0  0
    0.7157    2.1030    0.0000 C   0  0  0  0  0  0  0  0  0  0  0  0
    0.3032    2.8174    0.0000 C   0  0  0  0  0  0  0  0  0  0  0  0
    0.3032    1.3885    0.0000 C   0  0  0  0  0  0  0  0  0  0  0  0
   -0.1093    2.1030    0.0000 C   0  0  0  0  0  0  0  0  0  0  0  0
  1  2  4  0  0  0  0
  2  3  4  0  0  0  0
  3  4  4  0  0  0  0
  4  5  4  0  0  0  0
  5  6  4  0  0  0  0
  6  1  4  0  0  0  0
  2  7  1  0  0  0  0
  7  8  1  0  0  0  0
  8  9  1  0  0  0  0
  8 10  2  0  0  0  0
  4 11  1  0  0  0  0
 11 12  1  0  0  0  0
 11 13  2  0  0  0  0
 11 14  2  0  0  0  0
 12 15  1  0  0  0  0
 15 16  1  0  0  0  0
 15 17  1  0  0  0  0
 15 18  1  0  0  0  0
  5 20  1  0  0  0  0
 19 20  4  0  0  0  0
 20 21  4  0  0  0  0
 21 22  4  0  0  0  0
 22 23  4  0  0  0  0
 23 19  4  0  0  0  0
 22 24  1  0  0  0  0
 24 25  4  0  0  0  0
 25 26  4  0  0  0  0
 26 27  4  0  0  0  0
 27 28  4  0  0  0  0
 28 29  4  0  0  0  0
 29 24  4  0  0  0  0
 27 30  1  0  0  0  0
 29 31  1  0  0  0  0
 31 32  1  0  0  0  0
 31 33  2  0  0  0  0
 31 34  2  0  0  0  0
 32 35  1  0  0  0  0
 35 36  1  0  0  0  0
 35 37  1  0  0  0  0
 35 38  1  0  0  0  0
M  END
> <From>
www.bindingDB.org

> <BindingDB Reactant_set_id>
1155269

> <Ligand InChI>
InChI=1S/C25H33N5O5S3/c1-15(31)28-17-9-11-18(22(13-17)38(34,35)30-25(5,6)7)20-14-27-23(36-20)19-10-8-16(26)12-21(19)37(32,33)29-24(2,3)4/h8-14,29-30H,26H2,1-7H3,(H,28,31)

> <Ligand InChI Key>
UJCMMNUSLWFKJQ-UHFFFAOYSA-N

> <BindingDB MonomerID>
546420

> <BindingDB Ligand Name>
US11291655, No E8

> <Target Name>
DNA repair protein RAD51 homolog 1

> <Target Source Organism According to Curator or DataSource>
Homo sapiens

> <Ki (nM)>


> <IC50 (nM)>


> <Kd (nM)>


> <EC50 (nM)>
>10000

> <kon (M-1-s-1)>


> <koff (s-1)>


> <pH>


> <Temp C>


> <Curation/DataSource>
US Patent

> <Article DOI>


> <BindingDB Entry DOI>
10.7270/Q2NG4TV0

> <PMID>


> <PubChem AID>
aid1806421

> <Patent Number>
US11291655

> <Authors>
Castro, AC; McComas, CC; Vacca, J

> <Date of publication>
4/5/2022

> <Date in BindingDB>
7/21/2022

> <Institution>
Cyteir Therapeutics, Inc.

> <Link to Ligand in BindingDB>
http://www.bindingdb.org/bind/chemsearch/marvin/MolStructure.jsp?monomerid=546420

> <Link to Ligand-Target Pair in BindingDB>
http://www.bindingdb.org/jsp/dbsearch/PrimarySearch_ki.jsp?energyterm=kJ/mole&tag=pol&polymerid=4676&target=DNA+repair+protein+RAD51+homolog+1&column=ki&startPg=0&Increment=50&submit=Search

> <Link to Ligand-Target Pair in BindingDB>
http://www.bindingdb.org/jsp/dbsearch/PrimarySearch_ki.jsp?energyterm=kJ/mole&tag=r21&monomerid=546420&enzyme=DNA+repair+protein+RAD51+homolog+1&column=ki&startPg=0&Increment=50&submit=Search

> <Ligand HET ID in PDB>


> <PDB ID(s) for Ligand-Target Complex>


> <PubChem CID of Ligand>
137411813

> <PubChem SID of Ligand>
469681116

> <ChEBI ID of Ligand>


> <ChEMBL ID of Ligand>


> <DrugBank ID of Ligand>


> <IUPHAR_GRAC ID of Ligand>


> <KEGG ID of Ligand>


> <ZINC ID of Ligand>


> <Number of Protein Chains in Target (bigger than 1 implies a multichain complex)>
1

> <BindingDB Target Chain Sequence>
MAMQMQLEANADTSVEEESFGPQPISRLEQCGINANDVKKLEEAGFHTVEAVAYAPKKELINIKGISEAKADKILAEAAKLVPMGFTTATEFHQRRSEIIQITTGSKELDKLLQGGIETGSITEMFGEFRTGKTQICHTLAVTCQLPIDRGGGEGKAMYIDTEGTFRPERLLAVAERYGLSGSDVLDNVAYARAFNTDHQTQLLYQASAMMVESRYALLIVDSATALYRTDYSGRGELSARQMHLARFLRMLLRLADEFGVAVVITNQVVAQVDGAAMFAADPKKPIGGNIIAHASTTRLYLRKGRGETRICKIYDSPCLPEAEAMFAINADGVGDAKD

> <PDB ID(s) of Target Chain>
1N0W,5JZC,5NP7,5NWL,8BQ2,8BR2,8BSC

> <UniProt (SwissProt) Recommended Name of Target Chain>
DNA repair protein RAD51 homolog 1

> <UniProt (SwissProt) Entry Name of Target Chain>
RAD51_HUMAN

> <UniProt (SwissProt) Primary ID of Target Chain>
Q06609

> <UniProt (SwissProt) Secondary ID(s) of Target Chain>
B0FXP0 B2R8T6 Q6FHX9 Q6ZNA8 Q9BV60

> <UniProt (SwissProt) Alternative ID(s) of Target Chain>


> <UniProt (TrEMBL) Submitted Name of Target Chain>


> <UniProt (TrEMBL) Entry Name of Target Chain>


> <UniProt (TrEMBL) Primary ID of Target Chain>


> <UniProt (TrEMBL) Secondary ID(s) of Target Chain>


> <UniProt (TrEMBL) Alternative ID(s) of Target Chain>


$$$$
00280001.cdx
  Mrv0541 07212217012D          

 44 46  0  0  0  0            999 V2000
   -3.5223   -0.8655    0.0000 C   0  0  0  0  0  0  0  0  0  0  0  0
   -3.5223   -1.6905    0.0000 C   0  0  0  0  0  0  0  0  0  0  0  0
   -2.8078   -2.1030    0.0000 C   0  0  0  0  0  0  0  0  0  0  0  0
   -2.0933   -1.6905    0.0000 C   0  0  0  0  0  0  0  0  0  0  0  0
   -2.0933   -0.8655    0.0000 C   0  0  0  0  0  0  0  0  0  0  0  0
   -2.8078   -0.4530    0.0000 C   0  0  0  0  0  0  0  0  0  0  0  0
   -4.2367   -2.1030    0.0000 N   0  0  0  0  0  0  0  0  0  0  0  0
   -4.9512   -1.6905    0.0000 C   0  0  0  0  0  0  0  0  0  0  0  0
   -5.6657   -2.1030    0.0000 C   0  0  0  0  0  0  0  0  0  0  0  0
   -4.9512   -0.8655    0.0000 O   0  0  0  0  0  0  0  0  0  0  0  0
   -1.3789   -2.1030    0.0000 S   0  0  0  0  0  0  0  0  0  0  0  0
   -0.6644   -2.5155    0.0000 N   0  0  0  0  0  0  0  0  0  0  0  0
   -0.9664   -1.3885    0.0000 O   0  0  0  0  0  0  0  0  0  0  0  0
   -1.7914   -2.8174    0.0000 O   0  0  0  0  0  0  0  0  0  0  0  0
    0.0501   -2.1030    0.0000 C   0  0  0  0  0  0  0  0  0  0  0  0
    0.7646   -2.5155    0.0000 C   0  0  0  0  0  0  0  0  0  0  0  0
    0.0501   -1.2780    0.0000 C   0  0  0  0  0  0  0  0  0  0  0  0
    0.7646   -1.6905    0.0000 C   0  0  0  0  0  0  0  0  0  0  0  0
   -1.3789    0.3720    0.0000 C   0  0  0  0  0  0  0  0  0  0  0  0
   -1.3789   -0.4530    0.0000 C   0  0  0  0  0  0  0  0  0  0  0  0
   -0.5942   -0.7079    0.0000 S   0  0  0  0  0  0  0  0  0  0  0  0
   -0.1093   -0.0405    0.0000 C   0  0  0  0  0  0  0  0  0  0  0  0
   -0.5942    0.6270    0.0000 N   0  0  0  0  0  0  0  0  0  0  0  0
    0.7157   -0.0405    0.0000 C   0  0  0  0  0  0  0  0  0  0  0  0
    1.1282   -0.7549    0.0000 C   0  0  0  0  0  0  0  0  0  0  0  0
    1.9532   -0.7549    0.0000 C   0  0  0  0  0  0  0  0  0  0  0  0
    2.3657   -0.0405    0.0000 C   0  0  0  0  0  0  0  0  0  0  0  0
    1.9532    0.6740    0.0000 C   0  0  0  0  0  0  0  0  0  0  0  0
    1.1282    0.6740    0.0000 C   0  0  0  0  0  0  0  0  0  0  0  0
    3.1907   -0.0405    0.0000 N   0  0  0  0  0  0  0  0  0  0  0  0
    3.6032   -0.7549    0.0000 C   0  0  0  0  0  0  0  0  0  0  0  0
    4.4282   -0.7549    0.0000 N   0  0  0  0  0  0  0  0  0  0  0  0
    3.1907   -1.4694    0.0000 S   0  0  0  0  0  0  0  0  0  0  0  0
    4.8407   -0.0405    0.0000 C   0  0  0  0  0  0  0  0  0  0  0  0
    5.6657   -0.0405    0.0000 C   0  0  0  0  0  0  0  0  0  0  0  0
    4.4282    0.6740    0.0000 C   0  0  0  0  0  0  0  0  0  0  0  0
    0.7157    1.3885    0.0000 S   0  0  0  0  0  0  0  0  0  0  0  0
    0.3032    2.1030    0.0000 N   0  0  0  0  0  0  0  0  0  0  0  0
    1.4302    1.8010    0.0000 O   0  0  0  0  0  0  0  0  0  0  0  0
    0.0012    0.9760    0.0000 O   0  0  0  0  0  0  0  0  0  0  0  0
   -0.5218    2.1030    0.0000 C   0  0  0  0  0  0  0  0  0  0  0  0
   -0.9343    2.8174    0.0000 C   0  0  0  0  0  0  0  0  0  0  0  0
   -0.9343    1.3885    0.0000 C   0  0  0  0  0  0  0  0  0  0  0  0
   -1.3468    2.1030    0.0000 C   0  0  0  0  0  0  0  0  0  0  0  0
  1  2  4  0  0  0  0
  2  3  4  0  0  0  0
  3  4  4  0  0  0  0
  4  5  4  0  0  0  0
  5  6  4  0  0  0  0
  6  1  4  0  0  0  0
  2  7  1  0  0  0  0
  7  8  1  0  0  0  0
  8  9  1  0  0  0  0
  8 10  2  0  0  0  0
  4 11  1  0  0  0  0
 11 12  1  0  0  0  0
 11 13  2  0  0  0  0
 11 14  2  0  0  0  0
 12 15  1  0  0  0  0
 15 16  1  0  0  0  0
 15 17  1  0  0  0  0
 15 18  1  0  0  0  0
  5 20  1  0  0  0  0
 19 20  4  0  0  0  0
 20 21  4  0  0  0  0
 21 22  4  0  0  0  0
 22 23  4  0  0  0  0
 23 19  4  0  0  0  0
 22 24  1  0  0  0  0
 24 25  4  0  0  0  0
 25 26  4  0  0  0  0
 26 27  4  0  0  0  0
 27 28  4  0  0  0  0
 28 29  4  0  0  0  0
 29 24  4  0  0  0  0
 27 30  1  0  0  0  0
 30 31  1  0  0  0  0
 31 32  1  0  0  0  0
 31 33  2  0  0  0  0
 32 34  1  0  0  0  0
 34 35  1  0  0  0  0
 34 36  1  0  0  0  0
 29 37  1  0  0  0  0
 37 38  1  0  0  0  0
 37 39  2  0  0  0  0
 37 40  2  0  0  0  0
 38 41  1  0  0  0  0
 41 42  1  0  0  0  0
 41 43  1  0  0  0  0
 41 44  1  0  0  0  0
M  END
> <From>
www.bindingDB.org

> <BindingDB Reactant_set_id>
1155270

> <Ligand InChI>
InChI=1S/C29H40N6O5S4/c1-17(2)31-27(41)33-20-11-13-22(25(15-20)44(39,40)35-29(7,8)9)26-30-16-23(42-26)21-12-10-19(32-18(3)36)14-24(21)43(37,38)34-28(4,5)6/h10-17,34-35H,1-9H3,(H,32,36)(H2,31,33,41)

> <Ligand InChI Key>
AHKKVTBMDKHESL-UHFFFAOYSA-N

> <BindingDB MonomerID>
546421

> <BindingDB Ligand Name>
US11291655, No E9

> <Target Name>
DNA repair protein RAD51 homolog 1

> <Target Source Organism According to Curator or DataSource>
Homo sapiens

> <Ki (nM)>


> <IC50 (nM)>


> <Kd (nM)>


> <EC50 (nM)>
<1000

> <kon (M-1-s-1)>


> <koff (s-1)>


> <pH>


> <Temp C>


> <Curation/DataSource>
US Patent

> <Article DOI>


> <BindingDB Entry DOI>
10.7270/Q2NG4TV0

> <PMID>


> <PubChem AID>
aid1806421

> <Patent Number>
US11291655

> <Authors>
Castro, AC; McComas, CC; Vacca, J

> <Date of publication>
4/5/2022

> <Date in BindingDB>
7/21/2022

> <Institution>
Cyteir Therapeutics, Inc.

> <Link to Ligand in BindingDB>
http://www.bindingdb.org/bind/chemsearch/marvin/MolStructure.jsp?monomerid=546421

> <Link to Ligand-Target Pair in BindingDB>
http://www.bindingdb.org/jsp/dbsearch/PrimarySearch_ki.jsp?energyterm=kJ/mole&tag=pol&polymerid=4676&target=DNA+repair+protein+RAD51+homolog+1&column=ki&startPg=0&Increment=50&submit=Search

> <Link to Ligand-Target Pair in BindingDB>
http://www.bindingdb.org/jsp/dbsearch/PrimarySearch_ki.jsp?energyterm=kJ/mole&tag=r21&monomerid=546421&enzyme=DNA+repair+protein+RAD51+homolog+1&column=ki&startPg=0&Increment=50&submit=Search

> <Ligand HET ID in PDB>


> <PDB ID(s) for Ligand-Target Complex>


> <PubChem CID of Ligand>
137411838

> <PubChem SID of Ligand>
469681117

> <ChEBI ID of Ligand>


> <ChEMBL ID of Ligand>


> <DrugBank ID of Ligand>


> <IUPHAR_GRAC ID of Ligand>


> <KEGG ID of Ligand>


> <ZINC ID of Ligand>


> <Number of Protein Chains in Target (bigger than 1 implies a multichain complex)>
1

> <BindingDB Target Chain Sequence>
MAMQMQLEANADTSVEEESFGPQPISRLEQCGINANDVKKLEEAGFHTVEAVAYAPKKELINIKGISEAKADKILAEAAKLVPMGFTTATEFHQRRSEIIQITTGSKELDKLLQGGIETGSITEMFGEFRTGKTQICHTLAVTCQLPIDRGGGEGKAMYIDTEGTFRPERLLAVAERYGLSGSDVLDNVAYARAFNTDHQTQLLYQASAMMVESRYALLIVDSATALYRTDYSGRGELSARQMHLARFLRMLLRLADEFGVAVVITNQVVAQVDGAAMFAADPKKPIGGNIIAHASTTRLYLRKGRGETRICKIYDSPCLPEAEAMFAINADGVGDAKD

> <PDB ID(s) of Target Chain>
1N0W,5JZC,5NP7,5NWL,8BQ2,8BR2,8BSC

> <UniProt (SwissProt) Recommended Name of Target Chain>
DNA repair protein RAD51 homolog 1

> <UniProt (SwissProt) Entry Name of Target Chain>
RAD51_HUMAN

> <UniProt (SwissProt) Primary ID of Target Chain>
Q06609

> <UniProt (SwissProt) Secondary ID(s) of Target Chain>
B0FXP0 B2R8T6 Q6FHX9 Q6ZNA8 Q9BV60

> <UniProt (SwissProt) Alternative ID(s) of Target Chain>


> <UniProt (TrEMBL) Submitted Name of Target Chain>


> <UniProt (TrEMBL) Entry Name of Target Chain>


> <UniProt (TrEMBL) Primary ID of Target Chain>


> <UniProt (TrEMBL) Secondary ID(s) of Target Chain>


> <UniProt (TrEMBL) Alternative ID(s) of Target Chain>


$$$$
00281001.cdx
  Mrv0541 07212217012D          

 37 39  0  0  0  0            999 V2000
   -3.7285    0.2063    0.0000 C   0  0  0  0  0  0  0  0  0  0  0  0
   -3.7285   -0.6187    0.0000 C   0  0  0  0  0  0  0  0  0  0  0  0
   -3.0141   -1.0312    0.0000 C   0  0  0  0  0  0  0  0  0  0  0  0
   -2.2996   -0.6187    0.0000 C   0  0  0  0  0  0  0  0  0  0  0  0
   -2.2996    0.2063    0.0000 C   0  0  0  0  0  0  0  0  0  0  0  0
   -3.0141    0.6188    0.0000 C   0  0  0  0  0  0  0  0  0  0  0  0
   -4.4430   -1.0312    0.0000 N   0  0  0  0  0  0  0  0  0  0  0  0
   -5.1575   -0.6187    0.0000 C   0  0  0  0  0  0  0  0  0  0  0  0
   -5.8719   -1.0312    0.0000 C   0  0  0  0  0  0  0  0  0  0  0  0
   -5.1575    0.2063    0.0000 O   0  0  0  0  0  0  0  0  0  0  0  0
   -1.5851   -1.0312    0.0000 S   0  0  0  0  0  0  0  0  0  0  0  0
   -0.8706   -1.4437    0.0000 N   0  0  0  0  0  0  0  0  0  0  0  0
   -1.1726   -0.3168    0.0000 O   0  0  0  0  0  0  0  0  0  0  0  0
   -1.9976   -1.7457    0.0000 O   0  0  0  0  0  0  0  0  0  0  0  0
   -0.1562   -1.0312    0.0000 C   0  0  0  0  0  0  0  0  0  0  0  0
    0.5583   -1.4437    0.0000 C   0  0  0  0  0  0  0  0  0  0  0  0
   -0.1562   -0.2062    0.0000 C   0  0  0  0  0  0  0  0  0  0  0  0
    0.5583   -0.6187    0.0000 C   0  0  0  0  0  0  0  0  0  0  0  0
   -1.5851    1.4438    0.0000 C   0  0  0  0  0  0  0  0  0  0  0  0
   -1.5851    0.6188    0.0000 C   0  0  0  0  0  0  0  0  0  0  0  0
   -0.8005    0.3638    0.0000 S   0  0  0  0  0  0  0  0  0  0  0  0
   -0.3156    1.0313    0.0000 C   0  0  0  0  0  0  0  0  0  0  0  0
   -0.8005    1.6987    0.0000 N   0  0  0  0  0  0  0  0  0  0  0  0
    0.5094    1.0313    0.0000 C   0  0  0  0  0  0  0  0  0  0  0  0
    0.9219    0.3168    0.0000 C   0  0  0  0  0  0  0  0  0  0  0  0
    1.7469    0.3168    0.0000 C   0  0  0  0  0  0  0  0  0  0  0  0
    2.1594    1.0313    0.0000 C   0  0  0  0  0  0  0  0  0  0  0  0
    1.7469    1.7457    0.0000 C   0  0  0  0  0  0  0  0  0  0  0  0
    0.9219    1.7457    0.0000 C   0  0  0  0  0  0  0  0  0  0  0  0
    2.9844    1.0313    0.0000 N   0  0  0  0  0  0  0  0  0  0  0  0
    3.3969    0.3168    0.0000 C   0  0  0  0  0  0  0  0  0  0  0  0
    4.2219    0.3168    0.0000 O   0  0  0  0  0  0  0  0  0  0  0  0
    2.9844   -0.3977    0.0000 O   0  0  0  0  0  0  0  0  0  0  0  0
    4.6344    1.0313    0.0000 C   0  0  0  0  0  0  0  0  0  0  0  0
    5.4594    1.0313    0.0000 C   0  0  0  0  0  0  0  0  0  0  0  0
    5.8719    1.7457    0.0000 C   0  0  0  0  0  0  0  0  0  0  0  0
    5.8719    0.3168    0.0000 C   0  0  0  0  0  0  0  0  0  0  0  0
  1  2  4  0  0  0  0
  2  3  4  0  0  0  0
  3  4  4  0  0  0  0
  4  5  4  0  0  0  0
  5  6  4  0  0  0  0
  6  1  4  0  0  0  0
  2  7  1  0  0  0  0
  7  8  1  0  0  0  0
  8  9  1  0  0  0  0
  8 10  2  0  0  0  0
  4 11  1  0  0  0  0
 11 12  1  0  0  0  0
 11 13  2  0  0  0  0
 11 14  2  0  0  0  0
 12 15  1  0  0  0  0
 15 16  1  0  0  0  0
 15 17  1  0  0  0  0
 15 18  1  0  0  0  0
  5 20  1  0  0  0  0
 19 20  4  0  0  0  0
 20 21  4  0  0  0  0
 21 22  4  0  0  0  0
 22 23  4  0  0  0  0
 23 19  4  0  0  0  0
 22 24  1  0  0  0  0
 24 25  4  0  0  0  0
 25 26  4  0  0  0  0
 26 27  4  0  0  0  0
 27 28  4  0  0  0  0
 28 29  4  0  0  0  0
 29 24  4  0  0  0  0
 27 30  1  0  0  0  0
 30 31  1  0  0  0  0
 31 32  1  0  0  0  0
 31 33  2  0  0  0  0
 32 34  1  0  0  0  0
 34 35  1  0  0  0  0
 35 36  1  0  0  0  0
 35 37  1  0  0  0  0
M  END
> <From>
www.bindingDB.org

> <BindingDB Reactant_set_id>
1155271

> <Ligand InChI>
InChI=1S/C26H32N4O5S2/c1-16(2)15-35-25(32)29-19-9-7-18(8-10-19)24-27-14-22(36-24)21-12-11-20(28-17(3)31)13-23(21)37(33,34)30-26(4,5)6/h7-14,16,30H,15H2,1-6H3,(H,28,31)(H,29,32)

> <Ligand InChI Key>
UWCMZUKEBYOICI-UHFFFAOYSA-N

> <BindingDB MonomerID>
546422

> <BindingDB Ligand Name>
US11291655, No G1

> <Target Name>
DNA repair protein RAD51 homolog 1

> <Target Source Organism According to Curator or DataSource>
Homo sapiens

> <Ki (nM)>


> <IC50 (nM)>


> <Kd (nM)>


> <EC50 (nM)>
<5000

> <kon (M-1-s-1)>


> <koff (s-1)>


> <pH>


> <Temp C>


> <Curation/DataSource>
US Patent

> <Article DOI>


> <BindingDB Entry DOI>
10.7270/Q2NG4TV0

> <PMID>


> <PubChem AID>
aid1806421

> <Patent Number>
US11291655

> <Authors>
Castro, AC; McComas, CC; Vacca, J

> <Date of publication>
4/5/2022

> <Date in BindingDB>
7/21/2022

> <Institution>
Cyteir Therapeutics, Inc.

> <Link to Ligand in BindingDB>
http://www.bindingdb.org/bind/chemsearch/marvin/MolStructure.jsp?monomerid=546422

> <Link to Ligand-Target Pair in BindingDB>
http://www.bindingdb.org/jsp/dbsearch/PrimarySearch_ki.jsp?energyterm=kJ/mole&tag=pol&polymerid=4676&target=DNA+repair+protein+RAD51+homolog+1&column=ki&startPg=0&Increment=50&submit=Search

> <Link to Ligand-Target Pair in BindingDB>
http://www.bindingdb.org/jsp/dbsearch/PrimarySearch_ki.jsp?energyterm=kJ/mole&tag=r21&monomerid=546422&enzyme=DNA+repair+protein+RAD51+homolog+1&column=ki&startPg=0&Increment=50&submit=Search

> <Ligand HET ID in PDB>


> <PDB ID(s) for Ligand-Target Complex>


> <PubChem CID of Ligand>
137411812

> <PubChem SID of Ligand>
469681118

> <ChEBI ID of Ligand>


> <ChEMBL ID of Ligand>


> <DrugBank ID of Ligand>


> <IUPHAR_GRAC ID of Ligand>


> <KEGG ID of Ligand>


> <ZINC ID of Ligand>


> <Number of Protein Chains in Target (bigger than 1 implies a multichain complex)>
1

> <BindingDB Target Chain Sequence>
MAMQMQLEANADTSVEEESFGPQPISRLEQCGINANDVKKLEEAGFHTVEAVAYAPKKELINIKGISEAKADKILAEAAKLVPMGFTTATEFHQRRSEIIQITTGSKELDKLLQGGIETGSITEMFGEFRTGKTQICHTLAVTCQLPIDRGGGEGKAMYIDTEGTFRPERLLAVAERYGLSGSDVLDNVAYARAFNTDHQTQLLYQASAMMVESRYALLIVDSATALYRTDYSGRGELSARQMHLARFLRMLLRLADEFGVAVVITNQVVAQVDGAAMFAADPKKPIGGNIIAHASTTRLYLRKGRGETRICKIYDSPCLPEAEAMFAINADGVGDAKD

> <PDB ID(s) of Target Chain>
1N0W,5JZC,5NP7,5NWL,8BQ2,8BR2,8BSC

> <UniProt (SwissProt) Recommended Name of Target Chain>
DNA repair protein RAD51 homolog 1

> <UniProt (SwissProt) Entry Name of Target Chain>
RAD51_HUMAN

> <UniProt (SwissProt) Primary ID of Target Chain>
Q06609

> <UniProt (SwissProt) Secondary ID(s) of Target Chain>
B0FXP0 B2R8T6 Q6FHX9 Q6ZNA8 Q9BV60

> <UniProt (SwissProt) Alternative ID(s) of Target Chain>


> <UniProt (TrEMBL) Submitted Name of Target Chain>


> <UniProt (TrEMBL) Entry Name of Target Chain>


> <UniProt (TrEMBL) Primary ID of Target Chain>


> <UniProt (TrEMBL) Secondary ID(s) of Target Chain>


> <UniProt (TrEMBL) Alternative ID(s) of Target Chain>


$$$$
00282001.cdx
  Mrv0541 07212217012D          

 36 38  0  0  0  0            999 V2000
   -3.5223    0.2063    0.0000 C   0  0  0  0  0  0  0  0  0  0  0  0
   -3.5223   -0.6187    0.0000 C   0  0  0  0  0  0  0  0  0  0  0  0
   -2.8078   -1.0312    0.0000 C   0  0  0  0  0  0  0  0  0  0  0  0
   -2.0933   -0.6187    0.0000 C   0  0  0  0  0  0  0  0  0  0  0  0
   -2.0933    0.2063    0.0000 C   0  0  0  0  0  0  0  0  0  0  0  0
   -2.8078    0.6188    0.0000 C   0  0  0  0  0  0  0  0  0  0  0  0
   -4.2367   -1.0312    0.0000 N   0  0  0  0  0  0  0  0  0  0  0  0
   -4.9512   -0.6187    0.0000 C   0  0  0  0  0  0  0  0  0  0  0  0
   -5.6657   -1.0312    0.0000 C   0  0  0  0  0  0  0  0  0  0  0  0
   -4.9512    0.2063    0.0000 O   0  0  0  0  0  0  0  0  0  0  0  0
   -1.3789   -1.0312    0.0000 S   0  0  0  0  0  0  0  0  0  0  0  0
   -0.6644   -1.4437    0.0000 N   0  0  0  0  0  0  0  0  0  0  0  0
   -0.9664   -0.3168    0.0000 O   0  0  0  0  0  0  0  0  0  0  0  0
   -1.7914   -1.7457    0.0000 O   0  0  0  0  0  0  0  0  0  0  0  0
    0.0501   -1.0312    0.0000 C   0  0  0  0  0  0  0  0  0  0  0  0
    0.7646   -1.4437    0.0000 C   0  0  0  0  0  0  0  0  0  0  0  0
    0.0501   -0.2062    0.0000 C   0  0  0  0  0  0  0  0  0  0  0  0
    0.7646   -0.6187    0.0000 C   0  0  0  0  0  0  0  0  0  0  0  0
   -1.3789    1.4438    0.0000 C   0  0  0  0  0  0  0  0  0  0  0  0
   -1.3789    0.6188    0.0000 C   0  0  0  0  0  0  0  0  0  0  0  0
   -0.5942    0.3638    0.0000 S   0  0  0  0  0  0  0  0  0  0  0  0
   -0.1093    1.0313    0.0000 C   0  0  0  0  0  0  0  0  0  0  0  0
   -0.5942    1.6987    0.0000 N   0  0  0  0  0  0  0  0  0  0  0  0
    0.7157    1.0313    0.0000 C   0  0  0  0  0  0  0  0  0  0  0  0
    1.1282    0.3168    0.0000 C   0  0  0  0  0  0  0  0  0  0  0  0
    1.9532    0.3168    0.0000 C   0  0  0  0  0  0  0  0  0  0  0  0
    2.3657    1.0313    0.0000 C   0  0  0  0  0  0  0  0  0  0  0  0
    1.9532    1.7457    0.0000 C   0  0  0  0  0  0  0  0  0  0  0  0
    1.1282    1.7457    0.0000 C   0  0  0  0  0  0  0  0  0  0  0  0
    3.1907    1.0313    0.0000 N   0  0  0  0  0  0  0  0  0  0  0  0
    3.6032    0.3168    0.0000 C   0  0  0  0  0  0  0  0  0  0  0  0
    4.4282    0.3168    0.0000 N   0  0  0  0  0  0  0  0  0  0  0  0
    3.1907   -0.3977    0.0000 O   0  0  0  0  0  0  0  0  0  0  0  0
    4.8407    1.0313    0.0000 C   0  0  0  0  0  0  0  0  0  0  0  0
    5.6657    1.0313    0.0000 C   0  0  0  0  0  0  0  0  0  0  0  0
    4.4282    1.7457    0.0000 C   0  0  0  0  0  0  0  0  0  0  0  0
  1  2  4  0  0  0  0
  2  3  4  0  0  0  0
  3  4  4  0  0  0  0
  4  5  4  0  0  0  0
  5  6  4  0  0  0  0
  6  1  4  0  0  0  0
  2  7  1  0  0  0  0
  7  8  1  0  0  0  0
  8  9  1  0  0  0  0
  8 10  2  0  0  0  0
  4 11  1  0  0  0  0
 11 12  1  0  0  0  0
 11 13  2  0  0  0  0
 11 14  2  0  0  0  0
 12 15  1  0  0  0  0
 15 16  1  0  0  0  0
 15 17  1  0  0  0  0
 15 18  1  0  0  0  0
  5 20  1  0  0  0  0
 19 20  4  0  0  0  0
 20 21  4  0  0  0  0
 21 22  4  0  0  0  0
 22 23  4  0  0  0  0
 23 19  4  0  0  0  0
 22 24  1  0  0  0  0
 24 25  4  0  0  0  0
 25 26  4  0  0  0  0
 26 27  4  0  0  0  0
 27 28  4  0  0  0  0
 28 29  4  0  0  0  0
 29 24  4  0  0  0  0
 27 30  1  0  0  0  0
 30 31  1  0  0  0  0
 31 32  1  0  0  0  0
 31 33  2  0  0  0  0
 32 34  1  0  0  0  0
 34 35  1  0  0  0  0
 34 36  1  0  0  0  0
M  END
> <From>
www.bindingDB.org

> <BindingDB Reactant_set_id>
1155272

> <Ligand InChI>
InChI=1S/C25H31N5O4S2/c1-15(2)27-24(32)29-18-9-7-17(8-10-18)23-26-14-21(35-23)20-12-11-19(28-16(3)31)13-22(20)36(33,34)30-25(4,5)6/h7-15,30H,1-6H3,(H,28,31)(H2,27,29,32)

> <Ligand InChI Key>
ULELBZGKKDASTC-UHFFFAOYSA-N

> <BindingDB MonomerID>
546423

> <BindingDB Ligand Name>
US11291655, No G10

> <Target Name>
DNA repair protein RAD51 homolog 1

> <Target Source Organism According to Curator or DataSource>
Homo sapiens

> <Ki (nM)>


> <IC50 (nM)>


> <Kd (nM)>


> <EC50 (nM)>
<10000

> <kon (M-1-s-1)>


> <koff (s-1)>


> <pH>


> <Temp C>


> <Curation/DataSource>
US Patent

> <Article DOI>


> <BindingDB Entry DOI>
10.7270/Q2NG4TV0

> <PMID>


> <PubChem AID>
aid1806421

> <Patent Number>
US11291655

> <Authors>
Castro, AC; McComas, CC; Vacca, J

> <Date of publication>
4/5/2022

> <Date in BindingDB>
7/21/2022

> <Institution>
Cyteir Therapeutics, Inc.

> <Link to Ligand in BindingDB>
http://www.bindingdb.org/bind/chemsearch/marvin/MolStructure.jsp?monomerid=546423

> <Link to Ligand-Target Pair in BindingDB>
http://www.bindingdb.org/jsp/dbsearch/PrimarySearch_ki.jsp?energyterm=kJ/mole&tag=pol&polymerid=4676&target=DNA+repair+protein+RAD51+homolog+1&column=ki&startPg=0&Increment=50&submit=Search

> <Link to Ligand-Target Pair in BindingDB>
http://www.bindingdb.org/jsp/dbsearch/PrimarySearch_ki.jsp?energyterm=kJ/mole&tag=r21&monomerid=546423&enzyme=DNA+repair+protein+RAD51+homolog+1&column=ki&startPg=0&Increment=50&submit=Search

> <Ligand HET ID in PDB>


> <PDB ID(s) for Ligand-Target Complex>


> <PubChem CID of Ligand>
137408617

> <PubChem SID of Ligand>
469681119

> <ChEBI ID of Ligand>


> <ChEMBL ID of Ligand>


> <DrugBank ID of Ligand>


> <IUPHAR_GRAC ID of Ligand>


> <KEGG ID of Ligand>


> <ZINC ID of Ligand>


> <Number of Protein Chains in Target (bigger than 1 implies a multichain complex)>
1

> <BindingDB Target Chain Sequence>
MAMQMQLEANADTSVEEESFGPQPISRLEQCGINANDVKKLEEAGFHTVEAVAYAPKKELINIKGISEAKADKILAEAAKLVPMGFTTATEFHQRRSEIIQITTGSKELDKLLQGGIETGSITEMFGEFRTGKTQICHTLAVTCQLPIDRGGGEGKAMYIDTEGTFRPERLLAVAERYGLSGSDVLDNVAYARAFNTDHQTQLLYQASAMMVESRYALLIVDSATALYRTDYSGRGELSARQMHLARFLRMLLRLADEFGVAVVITNQVVAQVDGAAMFAADPKKPIGGNIIAHASTTRLYLRKGRGETRICKIYDSPCLPEAEAMFAINADGVGDAKD

> <PDB ID(s) of Target Chain>
1N0W,5JZC,5NP7,5NWL,8BQ2,8BR2,8BSC

> <UniProt (SwissProt) Recommended Name of Target Chain>
DNA repair protein RAD51 homolog 1

> <UniProt (SwissProt) Entry Name of Target Chain>
RAD51_HUMAN

> <UniProt (SwissProt) Primary ID of Target Chain>
Q06609

> <UniProt (SwissProt) Secondary ID(s) of Target Chain>
B0FXP0 B2R8T6 Q6FHX9 Q6ZNA8 Q9BV60

> <UniProt (SwissProt) Alternative ID(s) of Target Chain>


> <UniProt (TrEMBL) Submitted Name of Target Chain>


> <UniProt (TrEMBL) Entry Name of Target Chain>


> <UniProt (TrEMBL) Primary ID of Target Chain>


> <UniProt (TrEMBL) Secondary ID(s) of Target Chain>


> <UniProt (TrEMBL) Alternative ID(s) of Target Chain>


$$$$
00283001.cdx
  Mrv0541 07212217012D          

 37 39  0  0  0  0            999 V2000
   -3.5223    0.2063    0.0000 C   0  0  0  0  0  0  0  0  0  0  0  0
   -3.5223   -0.6187    0.0000 C   0  0  0  0  0  0  0  0  0  0  0  0
   -2.8078   -1.0312    0.0000 C   0  0  0  0  0  0  0  0  0  0  0  0
   -2.0933   -0.6187    0.0000 C   0  0  0  0  0  0  0  0  0  0  0  0
   -2.0933    0.2063    0.0000 C   0  0  0  0  0  0  0  0  0  0  0  0
   -2.8078    0.6188    0.0000 C   0  0  0  0  0  0  0  0  0  0  0  0
   -4.2367   -1.0312    0.0000 N   0  0  0  0  0  0  0  0  0  0  0  0
   -4.9512   -0.6187    0.0000 C   0  0  0  0  0  0  0  0  0  0  0  0
   -5.6657   -1.0312    0.0000 C   0  0  0  0  0  0  0  0  0  0  0  0
   -4.9512    0.2063    0.0000 O   0  0  0  0  0  0  0  0  0  0  0  0
   -1.3789   -1.0312    0.0000 S   0  0  0  0  0  0  0  0  0  0  0  0
   -0.6644   -1.4437    0.0000 N   0  0  0  0  0  0  0  0  0  0  0  0
   -0.9664   -0.3168    0.0000 O   0  0  0  0  0  0  0  0  0  0  0  0
   -1.7914   -1.7457    0.0000 O   0  0  0  0  0  0  0  0  0  0  0  0
    0.0501   -1.0312    0.0000 C   0  0  0  0  0  0  0  0  0  0  0  0
    0.7646   -1.4437    0.0000 C   0  0  0  0  0  0  0  0  0  0  0  0
    0.0501   -0.2062    0.0000 C   0  0  0  0  0  0  0  0  0  0  0  0
    0.7646   -0.6187    0.0000 C   0  0  0  0  0  0  0  0  0  0  0  0
   -1.3789    1.4438    0.0000 C   0  0  0  0  0  0  0  0  0  0  0  0
   -1.3789    0.6188    0.0000 C   0  0  0  0  0  0  0  0  0  0  0  0
   -0.5942    0.3638    0.0000 S   0  0  0  0  0  0  0  0  0  0  0  0
   -0.1093    1.0313    0.0000 C   0  0  0  0  0  0  0  0  0  0  0  0
   -0.5942    1.6987    0.0000 N   0  0  0  0  0  0  0  0  0  0  0  0
    0.7157    1.0313    0.0000 C   0  0  0  0  0  0  0  0  0  0  0  0
    1.1282    0.3168    0.0000 C   0  0  0  0  0  0  0  0  0  0  0  0
    1.9532    0.3168    0.0000 C   0  0  0  0  0  0  0  0  0  0  0  0
    2.3657    1.0313    0.0000 C   0  0  0  0  0  0  0  0  0  0  0  0
    1.9532    1.7457    0.0000 C   0  0  0  0  0  0  0  0  0  0  0  0
    1.1282    1.7457    0.0000 C   0  0  0  0  0  0  0  0  0  0  0  0
    3.1907    1.0313    0.0000 N   0  0  0  0  0  0  0  0  0  0  0  0
    3.6032    0.3168    0.0000 C   0  0  0  0  0  0  0  0  0  0  0  0
    4.4282    0.3168    0.0000 O   0  0  0  0  0  0  0  0  0  0  0  0
    3.1907   -0.3977    0.0000 O   0  0  0  0  0  0  0  0  0  0  0  0
    4.8407    1.0313    0.0000 C   0  0  0  0  0  0  0  0  0  0  0  0
    5.6657    1.0313    0.0000 C   0  0  0  0  0  0  0  0  0  0  0  0
    4.4282    1.7457    0.0000 C   0  0  0  0  0  0  0  0  0  0  0  0
    5.2532    1.7457    0.0000 C   0  0  0  0  0  0  0  0  0  0  0  0
  1  2  4  0  0  0  0
  2  3  4  0  0  0  0
  3  4  4  0  0  0  0
  4  5  4  0  0  0  0
  5  6  4  0  0  0  0
  6  1  4  0  0  0  0
  2  7  1  0  0  0  0
  7  8  1  0  0  0  0
  8  9  1  0  0  0  0
  8 10  2  0  0  0  0
  4 11  1  0  0  0  0
 11 12  1  0  0  0  0
 11 13  2  0  0  0  0
 11 14  2  0  0  0  0
 12 15  1  0  0  0  0
 15 16  1  0  0  0  0
 15 17  1  0  0  0  0
 15 18  1  0  0  0  0
  5 20  1  0  0  0  0
 19 20  4  0  0  0  0
 20 21  4  0  0  0  0
 21 22  4  0  0  0  0
 22 23  4  0  0  0  0
 23 19  4  0  0  0  0
 22 24  1  0  0  0  0
 24 25  4  0  0  0  0
 25 26  4  0  0  0  0
 26 27  4  0  0  0  0
 27 28  4  0  0  0  0
 28 29  4  0  0  0  0
 29 24  4  0  0  0  0
 27 30  1  0  0  0  0
 30 31  1  0  0  0  0
 31 32  1  0  0  0  0
 31 33  2  0  0  0  0
 32 34  1  0  0  0  0
 34 35  1  0  0  0  0
 34 36  1  0  0  0  0
 34 37  1  0  0  0  0
M  END
> <From>
www.bindingDB.org

> <BindingDB Reactant_set_id>
1155273

> <Ligand InChI>
InChI=1S/C26H32N4O5S2/c1-16(31)28-19-12-13-20(22(14-19)37(33,34)30-25(2,3)4)21-15-27-23(36-21)17-8-10-18(11-9-17)29-24(32)35-26(5,6)7/h8-15,30H,1-7H3,(H,28,31)(H,29,32)

> <Ligand InChI Key>
IPFJGMLGMJWLNH-UHFFFAOYSA-N

> <BindingDB MonomerID>
546424

> <BindingDB Ligand Name>
US11291655, No G11

> <Target Name>
DNA repair protein RAD51 homolog 1

> <Target Source Organism According to Curator or DataSource>
Homo sapiens

> <Ki (nM)>


> <IC50 (nM)>


> <Kd (nM)>


> <EC50 (nM)>
<5000

> <kon (M-1-s-1)>


> <koff (s-1)>


> <pH>


> <Temp C>


> <Curation/DataSource>
US Patent

> <Article DOI>


> <BindingDB Entry DOI>
10.7270/Q2NG4TV0

> <PMID>


> <PubChem AID>
aid1806421

> <Patent Number>
US11291655

> <Authors>
Castro, AC; McComas, CC; Vacca, J

> <Date of publication>
4/5/2022

> <Date in BindingDB>
7/21/2022

> <Institution>
Cyteir Therapeutics, Inc.

> <Link to Ligand in BindingDB>
http://www.bindingdb.org/bind/chemsearch/marvin/MolStructure.jsp?monomerid=546424

> <Link to Ligand-Target Pair in BindingDB>
http://www.bindingdb.org/jsp/dbsearch/PrimarySearch_ki.jsp?energyterm=kJ/mole&tag=pol&polymerid=4676&target=DNA+repair+protein+RAD51+homolog+1&column=ki&startPg=0&Increment=50&submit=Search

> <Link to Ligand-Target Pair in BindingDB>
http://www.bindingdb.org/jsp/dbsearch/PrimarySearch_ki.jsp?energyterm=kJ/mole&tag=r21&monomerid=546424&enzyme=DNA+repair+protein+RAD51+homolog+1&column=ki&startPg=0&Increment=50&submit=Search

> <Ligand HET ID in PDB>


> <PDB ID(s) for Ligand-Target Complex>


> <PubChem CID of Ligand>
137408927

> <PubChem SID of Ligand>
469681120

> <ChEBI ID of Ligand>


> <ChEMBL ID of Ligand>


> <DrugBank ID of Ligand>


> <IUPHAR_GRAC ID of Ligand>


> <KEGG ID of Ligand>


> <ZINC ID of Ligand>


> <Number of Protein Chains in Target (bigger than 1 implies a multichain complex)>
1

> <BindingDB Target Chain Sequence>
MAMQMQLEANADTSVEEESFGPQPISRLEQCGINANDVKKLEEAGFHTVEAVAYAPKKELINIKGISEAKADKILAEAAKLVPMGFTTATEFHQRRSEIIQITTGSKELDKLLQGGIETGSITEMFGEFRTGKTQICHTLAVTCQLPIDRGGGEGKAMYIDTEGTFRPERLLAVAERYGLSGSDVLDNVAYARAFNTDHQTQLLYQASAMMVESRYALLIVDSATALYRTDYSGRGELSARQMHLARFLRMLLRLADEFGVAVVITNQVVAQVDGAAMFAADPKKPIGGNIIAHASTTRLYLRKGRGETRICKIYDSPCLPEAEAMFAINADGVGDAKD

> <PDB ID(s) of Target Chain>
1N0W,5JZC,5NP7,5NWL,8BQ2,8BR2,8BSC

> <UniProt (SwissProt) Recommended Name of Target Chain>
DNA repair protein RAD51 homolog 1

> <UniProt (SwissProt) Entry Name of Target Chain>
RAD51_HUMAN

> <UniProt (SwissProt) Primary ID of Target Chain>
Q06609

> <UniProt (SwissProt) Secondary ID(s) of Target Chain>
B0FXP0 B2R8T6 Q6FHX9 Q6ZNA8 Q9BV60

> <UniProt (SwissProt) Alternative ID(s) of Target Chain>


> <UniProt (TrEMBL) Submitted Name of Target Chain>


> <UniProt (TrEMBL) Entry Name of Target Chain>


> <UniProt (TrEMBL) Primary ID of Target Chain>


> <UniProt (TrEMBL) Secondary ID(s) of Target Chain>


> <UniProt (TrEMBL) Alternative ID(s) of Target Chain>


$$$$
00284001.cdx
  Mrv0541 07212217012D          

 34 36  0  0  0  0            999 V2000
   -3.1098    0.2063    0.0000 C   0  0  0  0  0  0  0  0  0  0  0  0
   -3.1098   -0.6187    0.0000 C   0  0  0  0  0  0  0  0  0  0  0  0
   -2.3953   -1.0312    0.0000 C   0  0  0  0  0  0  0  0  0  0  0  0
   -1.6808   -0.6187    0.0000 C   0  0  0  0  0  0  0  0  0  0  0  0
   -1.6808    0.2063    0.0000 C   0  0  0  0  0  0  0  0  0  0  0  0
   -2.3953    0.6188    0.0000 C   0  0  0  0  0  0  0  0  0  0  0  0
   -3.8242   -1.0312    0.0000 N   0  0  0  0  0  0  0  0  0  0  0  0
   -4.5387   -0.6187    0.0000 C   0  0  0  0  0  0  0  0  0  0  0  0
   -5.2532   -1.0312    0.0000 C   0  0  0  0  0  0  0  0  0  0  0  0
   -4.5387    0.2063    0.0000 O   0  0  0  0  0  0  0  0  0  0  0  0
   -0.9664   -1.0312    0.0000 S   0  0  0  0  0  0  0  0  0  0  0  0
   -0.2519   -1.4437    0.0000 N   0  0  0  0  0  0  0  0  0  0  0  0
   -0.5539   -0.3168    0.0000 O   0  0  0  0  0  0  0  0  0  0  0  0
   -1.3789   -1.7457    0.0000 O   0  0  0  0  0  0  0  0  0  0  0  0
    0.4626   -1.0312    0.0000 C   0  0  0  0  0  0  0  0  0  0  0  0
    1.1771   -1.4437    0.0000 C   0  0  0  0  0  0  0  0  0  0  0  0
    0.4626   -0.2062    0.0000 C   0  0  0  0  0  0  0  0  0  0  0  0
    1.1771   -0.6187    0.0000 C   0  0  0  0  0  0  0  0  0  0  0  0
   -0.9664    1.4438    0.0000 C   0  0  0  0  0  0  0  0  0  0  0  0
   -0.9664    0.6188    0.0000 C   0  0  0  0  0  0  0  0  0  0  0  0
   -0.1817    0.3638    0.0000 S   0  0  0  0  0  0  0  0  0  0  0  0
    0.3032    1.0313    0.0000 C   0  0  0  0  0  0  0  0  0  0  0  0
   -0.1817    1.6987    0.0000 N   0  0  0  0  0  0  0  0  0  0  0  0
    1.1282    1.0313    0.0000 C   0  0  0  0  0  0  0  0  0  0  0  0
    1.5407    0.3168    0.0000 C   0  0  0  0  0  0  0  0  0  0  0  0
    2.3657    0.3168    0.0000 C   0  0  0  0  0  0  0  0  0  0  0  0
    2.7782    1.0313    0.0000 C   0  0  0  0  0  0  0  0  0  0  0  0
    2.3657    1.7457    0.0000 C   0  0  0  0  0  0  0  0  0  0  0  0
    1.5407    1.7457    0.0000 C   0  0  0  0  0  0  0  0  0  0  0  0
    3.6032    1.0313    0.0000 N   0  0  0  0  0  0  0  0  0  0  0  0
    4.0157    0.3168    0.0000 C   0  0  0  0  0  0  0  0  0  0  0  0
    4.8407    0.3168    0.0000 O   0  0  0  0  0  0  0  0  0  0  0  0
    3.6032   -0.3977    0.0000 O   0  0  0  0  0  0  0  0  0  0  0  0
    5.2532    1.0313    0.0000 C   0  0  0  0  0  0  0  0  0  0  0  0
  1  2  4  0  0  0  0
  2  3  4  0  0  0  0
  3  4  4  0  0  0  0
  4  5  4  0  0  0  0
  5  6  4  0  0  0  0
  6  1  4  0  0  0  0
  2  7  1  0  0  0  0
  7  8  1  0  0  0  0
  8  9  1  0  0  0  0
  8 10  2  0  0  0  0
  4 11  1  0  0  0  0
 11 12  1  0  0  0  0
 11 13  2  0  0  0  0
 11 14  2  0  0  0  0
 12 15  1  0  0  0  0
 15 16  1  0  0  0  0
 15 17  1  0  0  0  0
 15 18  1  0  0  0  0
  5 20  1  0  0  0  0
 19 20  4  0  0  0  0
 20 21  4  0  0  0  0
 21 22  4  0  0  0  0
 22 23  4  0  0  0  0
 23 19  4  0  0  0  0
 22 24  1  0  0  0  0
 24 25  4  0  0  0  0
 25 26  4  0  0  0  0
 26 27  4  0  0  0  0
 27 28  4  0  0  0  0
 28 29  4  0  0  0  0
 29 24  4  0  0  0  0
 27 30  1  0  0  0  0
 30 31  1  0  0  0  0
 31 32  1  0  0  0  0
 31 33  2  0  0  0  0
 32 34  1  0  0  0  0
M  END
> <From>
www.bindingDB.org

> <BindingDB Reactant_set_id>
1155274

> <Ligand InChI>
InChI=1S/C23H26N4O5S2/c1-14(28)25-17-10-11-18(20(12-17)34(30,31)27-23(2,3)4)19-13-24-21(33-19)15-6-8-16(9-7-15)26-22(29)32-5/h6-13,27H,1-5H3,(H,25,28)(H,26,29)

> <Ligand InChI Key>
LQQODHSBLOJKFR-UHFFFAOYSA-N

> <BindingDB MonomerID>
546425

> <BindingDB Ligand Name>
US11291655, No G2

> <Target Name>
DNA repair protein RAD51 homolog 1

> <Target Source Organism According to Curator or DataSource>
Homo sapiens

> <Ki (nM)>


> <IC50 (nM)>


> <Kd (nM)>


> <EC50 (nM)>
<10000

> <kon (M-1-s-1)>


> <koff (s-1)>


> <pH>


> <Temp C>


> <Curation/DataSource>
US Patent

> <Article DOI>


> <BindingDB Entry DOI>
10.7270/Q2NG4TV0

> <PMID>


> <PubChem AID>
aid1806421

> <Patent Number>
US11291655

> <Authors>
Castro, AC; McComas, CC; Vacca, J

> <Date of publication>
4/5/2022

> <Date in BindingDB>
7/21/2022

> <Institution>
Cyteir Therapeutics, Inc.

> <Link to Ligand in BindingDB>
http://www.bindingdb.org/bind/chemsearch/marvin/MolStructure.jsp?monomerid=546425

> <Link to Ligand-Target Pair in BindingDB>
http://www.bindingdb.org/jsp/dbsearch/PrimarySearch_ki.jsp?energyterm=kJ/mole&tag=pol&polymerid=4676&target=DNA+repair+protein+RAD51+homolog+1&column=ki&startPg=0&Increment=50&submit=Search

> <Link to Ligand-Target Pair in BindingDB>
http://www.bindingdb.org/jsp/dbsearch/PrimarySearch_ki.jsp?energyterm=kJ/mole&tag=r21&monomerid=546425&enzyme=DNA+repair+protein+RAD51+homolog+1&column=ki&startPg=0&Increment=50&submit=Search

> <Ligand HET ID in PDB>


> <PDB ID(s) for Ligand-Target Complex>


> <PubChem CID of Ligand>
137411873

> <PubChem SID of Ligand>
469681121

> <ChEBI ID of Ligand>


> <ChEMBL ID of Ligand>


> <DrugBank ID of Ligand>


> <IUPHAR_GRAC ID of Ligand>


> <KEGG ID of Ligand>


> <ZINC ID of Ligand>


> <Number of Protein Chains in Target (bigger than 1 implies a multichain complex)>
1

> <BindingDB Target Chain Sequence>
MAMQMQLEANADTSVEEESFGPQPISRLEQCGINANDVKKLEEAGFHTVEAVAYAPKKELINIKGISEAKADKILAEAAKLVPMGFTTATEFHQRRSEIIQITTGSKELDKLLQGGIETGSITEMFGEFRTGKTQICHTLAVTCQLPIDRGGGEGKAMYIDTEGTFRPERLLAVAERYGLSGSDVLDNVAYARAFNTDHQTQLLYQASAMMVESRYALLIVDSATALYRTDYSGRGELSARQMHLARFLRMLLRLADEFGVAVVITNQVVAQVDGAAMFAADPKKPIGGNIIAHASTTRLYLRKGRGETRICKIYDSPCLPEAEAMFAINADGVGDAKD

> <PDB ID(s) of Target Chain>
1N0W,5JZC,5NP7,5NWL,8BQ2,8BR2,8BSC

> <UniProt (SwissProt) Recommended Name of Target Chain>
DNA repair protein RAD51 homolog 1

> <UniProt (SwissProt) Entry Name of Target Chain>
RAD51_HUMAN

> <UniProt (SwissProt) Primary ID of Target Chain>
Q06609

> <UniProt (SwissProt) Secondary ID(s) of Target Chain>
B0FXP0 B2R8T6 Q6FHX9 Q6ZNA8 Q9BV60

> <UniProt (SwissProt) Alternative ID(s) of Target Chain>


> <UniProt (TrEMBL) Submitted Name of Target Chain>


> <UniProt (TrEMBL) Entry Name of Target Chain>


> <UniProt (TrEMBL) Primary ID of Target Chain>


> <UniProt (TrEMBL) Secondary ID(s) of Target Chain>


> <UniProt (TrEMBL) Alternative ID(s) of Target Chain>


$$$$
00285001.cdx
  Mrv0541 07212217012D          

 35 37  0  0  0  0            999 V2000
   -3.5223    0.2063    0.0000 C   0  0  0  0  0  0  0  0  0  0  0  0
   -3.5223   -0.6187    0.0000 C   0  0  0  0  0  0  0  0  0  0  0  0
   -2.8078   -1.0312    0.0000 C   0  0  0  0  0  0  0  0  0  0  0  0
   -2.0933   -0.6187    0.0000 C   0  0  0  0  0  0  0  0  0  0  0  0
   -2.0933    0.2063    0.0000 C   0  0  0  0  0  0  0  0  0  0  0  0
   -2.8078    0.6188    0.0000 C   0  0  0  0  0  0  0  0  0  0  0  0
   -4.2367   -1.0312    0.0000 N   0  0  0  0  0  0  0  0  0  0  0  0
   -4.9512   -0.6187    0.0000 C   0  0  0  0  0  0  0  0  0  0  0  0
   -5.6657   -1.0312    0.0000 C   0  0  0  0  0  0  0  0  0  0  0  0
   -4.9512    0.2063    0.0000 O   0  0  0  0  0  0  0  0  0  0  0  0
   -1.3789   -1.0312    0.0000 S   0  0  0  0  0  0  0  0  0  0  0  0
   -0.6644   -1.4437    0.0000 N   0  0  0  0  0  0  0  0  0  0  0  0
   -0.9664   -0.3168    0.0000 O   0  0  0  0  0  0  0  0  0  0  0  0
   -1.7914   -1.7457    0.0000 O   0  0  0  0  0  0  0  0  0  0  0  0
    0.0501   -1.0312    0.0000 C   0  0  0  0  0  0  0  0  0  0  0  0
    0.7646   -1.4437    0.0000 C   0  0  0  0  0  0  0  0  0  0  0  0
    0.0501   -0.2062    0.0000 C   0  0  0  0  0  0  0  0  0  0  0  0
    0.7646   -0.6187    0.0000 C   0  0  0  0  0  0  0  0  0  0  0  0
   -1.3789    1.4438    0.0000 C   0  0  0  0  0  0  0  0  0  0  0  0
   -1.3789    0.6188    0.0000 C   0  0  0  0  0  0  0  0  0  0  0  0
   -0.5942    0.3638    0.0000 S   0  0  0  0  0  0  0  0  0  0  0  0
   -0.1093    1.0313    0.0000 C   0  0  0  0  0  0  0  0  0  0  0  0
   -0.5942    1.6987    0.0000 N   0  0  0  0  0  0  0  0  0  0  0  0
    0.7157    1.0313    0.0000 C   0  0  0  0  0  0  0  0  0  0  0  0
    1.1282    0.3168    0.0000 C   0  0  0  0  0  0  0  0  0  0  0  0
    1.9532    0.3168    0.0000 C   0  0  0  0  0  0  0  0  0  0  0  0
    2.3657    1.0313    0.0000 C   0  0  0  0  0  0  0  0  0  0  0  0
    1.9532    1.7457    0.0000 C   0  0  0  0  0  0  0  0  0  0  0  0
    1.1282    1.7457    0.0000 C   0  0  0  0  0  0  0  0  0  0  0  0
    3.1907    1.0313    0.0000 N   0  0  0  0  0  0  0  0  0  0  0  0
    3.6032    0.3168    0.0000 C   0  0  0  0  0  0  0  0  0  0  0  0
    4.4282    0.3168    0.0000 O   0  0  0  0  0  0  0  0  0  0  0  0
    3.1907   -0.3977    0.0000 O   0  0  0  0  0  0  0  0  0  0  0  0
    4.8407    1.0313    0.0000 C   0  0  0  0  0  0  0  0  0  0  0  0
    5.6657    1.0313    0.0000 C   0  0  0  0  0  0  0  0  0  0  0  0
  1  2  4  0  0  0  0
  2  3  4  0  0  0  0
  3  4  4  0  0  0  0
  4  5  4  0  0  0  0
  5  6  4  0  0  0  0
  6  1  4  0  0  0  0
  2  7  1  0  0  0  0
  7  8  1  0  0  0  0
  8  9  1  0  0  0  0
  8 10  2  0  0  0  0
  4 11  1  0  0  0  0
 11 12  1  0  0  0  0
 11 13  2  0  0  0  0
 11 14  2  0  0  0  0
 12 15  1  0  0  0  0
 15 16  1  0  0  0  0
 15 17  1  0  0  0  0
 15 18  1  0  0  0  0
  5 20  1  0  0  0  0
 19 20  4  0  0  0  0
 20 21  4  0  0  0  0
 21 22  4  0  0  0  0
 22 23  4  0  0  0  0
 23 19  4  0  0  0  0
 22 24  1  0  0  0  0
 24 25  4  0  0  0  0
 25 26  4  0  0  0  0
 26 27  4  0  0  0  0
 27 28  4  0  0  0  0
 28 29  4  0  0  0  0
 29 24  4  0  0  0  0
 27 30  1  0  0  0  0
 30 31  1  0  0  0  0
 31 32  1  0  0  0  0
 31 33  2  0  0  0  0
 32 34  1  0  0  0  0
 34 35  1  0  0  0  0
M  END
> <From>
www.bindingDB.org

> <BindingDB Reactant_set_id>
1155275

> <Ligand InChI>
InChI=1S/C24H28N4O5S2/c1-6-33-23(30)27-17-9-7-16(8-10-17)22-25-14-20(34-22)19-12-11-18(26-15(2)29)13-21(19)35(31,32)28-24(3,4)5/h7-14,28H,6H2,1-5H3,(H,26,29)(H,27,30)

> <Ligand InChI Key>
WKBRRZYIJPVZGW-UHFFFAOYSA-N

> <BindingDB MonomerID>
546426

> <BindingDB Ligand Name>
US11291655, No G3

> <Target Name>
DNA repair protein RAD51 homolog 1

> <Target Source Organism According to Curator or DataSource>
Homo sapiens

> <Ki (nM)>


> <IC50 (nM)>


> <Kd (nM)>


> <EC50 (nM)>
<1000

> <kon (M-1-s-1)>


> <koff (s-1)>


> <pH>


> <Temp C>


> <Curation/DataSource>
US Patent

> <Article DOI>


> <BindingDB Entry DOI>
10.7270/Q2NG4TV0

> <PMID>


> <PubChem AID>
aid1806421

> <Patent Number>
US11291655

> <Authors>
Castro, AC; McComas, CC; Vacca, J

> <Date of publication>
4/5/2022

> <Date in BindingDB>
7/21/2022

> <Institution>
Cyteir Therapeutics, Inc.

> <Link to Ligand in BindingDB>
http://www.bindingdb.org/bind/chemsearch/marvin/MolStructure.jsp?monomerid=546426

> <Link to Ligand-Target Pair in BindingDB>
http://www.bindingdb.org/jsp/dbsearch/PrimarySearch_ki.jsp?energyterm=kJ/mole&tag=pol&polymerid=4676&target=DNA+repair+protein+RAD51+homolog+1&column=ki&startPg=0&Increment=50&submit=Search

> <Link to Ligand-Target Pair in BindingDB>
http://www.bindingdb.org/jsp/dbsearch/PrimarySearch_ki.jsp?energyterm=kJ/mole&tag=r21&monomerid=546426&enzyme=DNA+repair+protein+RAD51+homolog+1&column=ki&startPg=0&Increment=50&submit=Search

> <Ligand HET ID in PDB>


> <PDB ID(s) for Ligand-Target Complex>


> <PubChem CID of Ligand>
137411818

> <PubChem SID of Ligand>
469681122

> <ChEBI ID of Ligand>


> <ChEMBL ID of Ligand>


> <DrugBank ID of Ligand>


> <IUPHAR_GRAC ID of Ligand>


> <KEGG ID of Ligand>


> <ZINC ID of Ligand>


> <Number of Protein Chains in Target (bigger than 1 implies a multichain complex)>
1

> <BindingDB Target Chain Sequence>
MAMQMQLEANADTSVEEESFGPQPISRLEQCGINANDVKKLEEAGFHTVEAVAYAPKKELINIKGISEAKADKILAEAAKLVPMGFTTATEFHQRRSEIIQITTGSKELDKLLQGGIETGSITEMFGEFRTGKTQICHTLAVTCQLPIDRGGGEGKAMYIDTEGTFRPERLLAVAERYGLSGSDVLDNVAYARAFNTDHQTQLLYQASAMMVESRYALLIVDSATALYRTDYSGRGELSARQMHLARFLRMLLRLADEFGVAVVITNQVVAQVDGAAMFAADPKKPIGGNIIAHASTTRLYLRKGRGETRICKIYDSPCLPEAEAMFAINADGVGDAKD

> <PDB ID(s) of Target Chain>
1N0W,5JZC,5NP7,5NWL,8BQ2,8BR2,8BSC

> <UniProt (SwissProt) Recommended Name of Target Chain>
DNA repair protein RAD51 homolog 1

> <UniProt (SwissProt) Entry Name of Target Chain>
RAD51_HUMAN

> <UniProt (SwissProt) Primary ID of Target Chain>
Q06609

> <UniProt (SwissProt) Secondary ID(s) of Target Chain>
B0FXP0 B2R8T6 Q6FHX9 Q6ZNA8 Q9BV60

> <UniProt (SwissProt) Alternative ID(s) of Target Chain>


> <UniProt (TrEMBL) Submitted Name of Target Chain>


> <UniProt (TrEMBL) Entry Name of Target Chain>


> <UniProt (TrEMBL) Primary ID of Target Chain>


> <UniProt (TrEMBL) Secondary ID(s) of Target Chain>


> <UniProt (TrEMBL) Alternative ID(s) of Target Chain>


$$$$
00286001.cdx
  Mrv0541 07212217012D          

 36 38  0  0  0  0            999 V2000
   -3.5223    0.2063    0.0000 C   0  0  0  0  0  0  0  0  0  0  0  0
   -3.5223   -0.6187    0.0000 C   0  0  0  0  0  0  0  0  0  0  0  0
   -2.8078   -1.0312    0.0000 C   0  0  0  0  0  0  0  0  0  0  0  0
   -2.0933   -0.6187    0.0000 C   0  0  0  0  0  0  0  0  0  0  0  0
   -2.0933    0.2063    0.0000 C   0  0  0  0  0  0  0  0  0  0  0  0
   -2.8078    0.6188    0.0000 C   0  0  0  0  0  0  0  0  0  0  0  0
   -4.2367   -1.0312    0.0000 N   0  0  0  0  0  0  0  0  0  0  0  0
   -4.9512   -0.6187    0.0000 C   0  0  0  0  0  0  0  0  0  0  0  0
   -5.6657   -1.0312    0.0000 C   0  0  0  0  0  0  0  0  0  0  0  0
   -4.9512    0.2063    0.0000 O   0  0  0  0  0  0  0  0  0  0  0  0
   -1.3789   -1.0312    0.0000 S   0  0  0  0  0  0  0  0  0  0  0  0
   -0.6644   -1.4437    0.0000 N   0  0  0  0  0  0  0  0  0  0  0  0
   -0.9664   -0.3168    0.0000 O   0  0  0  0  0  0  0  0  0  0  0  0
   -1.7914   -1.7457    0.0000 O   0  0  0  0  0  0  0  0  0  0  0  0
    0.0501   -1.0312    0.0000 C   0  0  0  0  0  0  0  0  0  0  0  0
    0.7646   -1.4437    0.0000 C   0  0  0  0  0  0  0  0  0  0  0  0
    0.0501   -0.2062    0.0000 C   0  0  0  0  0  0  0  0  0  0  0  0
    0.7646   -0.6187    0.0000 C   0  0  0  0  0  0  0  0  0  0  0  0
   -1.3789    1.4438    0.0000 C   0  0  0  0  0  0  0  0  0  0  0  0
   -1.3789    0.6188    0.0000 C   0  0  0  0  0  0  0  0  0  0  0  0
   -0.5942    0.3638    0.0000 S   0  0  0  0  0  0  0  0  0  0  0  0
   -0.1093    1.0313    0.0000 C   0  0  0  0  0  0  0  0  0  0  0  0
   -0.5942    1.6987    0.0000 N   0  0  0  0  0  0  0  0  0  0  0  0
    0.7157    1.0313    0.0000 C   0  0  0  0  0  0  0  0  0  0  0  0
    1.1282    0.3168    0.0000 C   0  0  0  0  0  0  0  0  0  0  0  0
    1.9532    0.3168    0.0000 C   0  0  0  0  0  0  0  0  0  0  0  0
    2.3657    1.0313    0.0000 C   0  0  0  0  0  0  0  0  0  0  0  0
    1.9532    1.7457    0.0000 C   0  0  0  0  0  0  0  0  0  0  0  0
    1.1282    1.7457    0.0000 C   0  0  0  0  0  0  0  0  0  0  0  0
    3.1907    1.0313    0.0000 N   0  0  0  0  0  0  0  0  0  0  0  0
    3.6032    0.3168    0.0000 C   0  0  0  0  0  0  0  0  0  0  0  0
    4.4282    0.3168    0.0000 C   0  0  0  0  0  0  0  0  0  0  0  0
    3.1907   -0.3977    0.0000 O   0  0  0  0  0  0  0  0  0  0  0  0
    4.8407    1.0313    0.0000 C   0  0  0  0  0  0  0  0  0  0  0  0
    5.6657    1.0313    0.0000 C   0  0  0  0  0  0  0  0  0  0  0  0
    4.4282    1.7457    0.0000 C   0  0  0  0  0  0  0  0  0  0  0  0
  1  2  4  0  0  0  0
  2  3  4  0  0  0  0
  3  4  4  0  0  0  0
  4  5  4  0  0  0  0
  5  6  4  0  0  0  0
  6  1  4  0  0  0  0
  2  7  1  0  0  0  0
  7  8  1  0  0  0  0
  8  9  1  0  0  0  0
  8 10  2  0  0  0  0
  4 11  1  0  0  0  0
 11 12  1  0  0  0  0
 11 13  2  0  0  0  0
 11 14  2  0  0  0  0
 12 15  1  0  0  0  0
 15 16  1  0  0  0  0
 15 17  1  0  0  0  0
 15 18  1  0  0  0  0
  5 20  1  0  0  0  0
 19 20  4  0  0  0  0
 20 21  4  0  0  0  0
 21 22  4  0  0  0  0
 22 23  4  0  0  0  0
 23 19  4  0  0  0  0
 22 24  1  0  0  0  0
 24 25  4  0  0  0  0
 25 26  4  0  0  0  0
 26 27  4  0  0  0  0
 27 28  4  0  0  0  0
 28 29  4  0  0  0  0
 29 24  4  0  0  0  0
 27 30  1  0  0  0  0
 30 31  1  0  0  0  0
 31 32  1  0  0  0  0
 31 33  2  0  0  0  0
 32 34  1  0  0  0  0
 34 35  1  0  0  0  0
 34 36  1  0  0  0  0
M  END
> <From>
www.bindingDB.org

> <BindingDB Reactant_set_id>
1155276

> <Ligand InChI>
InChI=1S/C26H32N4O4S2/c1-16(2)13-24(32)29-19-9-7-18(8-10-19)25-27-15-22(35-25)21-12-11-20(28-17(3)31)14-23(21)36(33,34)30-26(4,5)6/h7-12,14-16,30H,13H2,1-6H3,(H,28,31)(H,29,32)

> <Ligand InChI Key>
SNIWYFNBNLPLKC-UHFFFAOYSA-N

> <BindingDB MonomerID>
546427

> <BindingDB Ligand Name>
US11291655, No G4

> <Target Name>
DNA repair protein RAD51 homolog 1

> <Target Source Organism According to Curator or DataSource>
Homo sapiens

> <Ki (nM)>


> <IC50 (nM)>


> <Kd (nM)>


> <EC50 (nM)>
>10000

> <kon (M-1-s-1)>


> <koff (s-1)>


> <pH>


> <Temp C>


> <Curation/DataSource>
US Patent

> <Article DOI>


> <BindingDB Entry DOI>
10.7270/Q2NG4TV0

> <PMID>


> <PubChem AID>
aid1806421

> <Patent Number>
US11291655

> <Authors>
Castro, AC; McComas, CC; Vacca, J

> <Date of publication>
4/5/2022

> <Date in BindingDB>
7/21/2022

> <Institution>
Cyteir Therapeutics, Inc.

> <Link to Ligand in BindingDB>
http://www.bindingdb.org/bind/chemsearch/marvin/MolStructure.jsp?monomerid=546427

> <Link to Ligand-Target Pair in BindingDB>
http://www.bindingdb.org/jsp/dbsearch/PrimarySearch_ki.jsp?energyterm=kJ/mole&tag=pol&polymerid=4676&target=DNA+repair+protein+RAD51+homolog+1&column=ki&startPg=0&Increment=50&submit=Search

> <Link to Ligand-Target Pair in BindingDB>
http://www.bindingdb.org/jsp/dbsearch/PrimarySearch_ki.jsp?energyterm=kJ/mole&tag=r21&monomerid=546427&enzyme=DNA+repair+protein+RAD51+homolog+1&column=ki&startPg=0&Increment=50&submit=Search

> <Ligand HET ID in PDB>


> <PDB ID(s) for Ligand-Target Complex>


> <PubChem CID of Ligand>
137411805

> <PubChem SID of Ligand>
469681123

> <ChEBI ID of Ligand>


> <ChEMBL ID of Ligand>


> <DrugBank ID of Ligand>


> <IUPHAR_GRAC ID of Ligand>


> <KEGG ID of Ligand>


> <ZINC ID of Ligand>


> <Number of Protein Chains in Target (bigger than 1 implies a multichain complex)>
1

> <BindingDB Target Chain Sequence>
MAMQMQLEANADTSVEEESFGPQPISRLEQCGINANDVKKLEEAGFHTVEAVAYAPKKELINIKGISEAKADKILAEAAKLVPMGFTTATEFHQRRSEIIQITTGSKELDKLLQGGIETGSITEMFGEFRTGKTQICHTLAVTCQLPIDRGGGEGKAMYIDTEGTFRPERLLAVAERYGLSGSDVLDNVAYARAFNTDHQTQLLYQASAMMVESRYALLIVDSATALYRTDYSGRGELSARQMHLARFLRMLLRLADEFGVAVVITNQVVAQVDGAAMFAADPKKPIGGNIIAHASTTRLYLRKGRGETRICKIYDSPCLPEAEAMFAINADGVGDAKD

> <PDB ID(s) of Target Chain>
1N0W,5JZC,5NP7,5NWL,8BQ2,8BR2,8BSC

> <UniProt (SwissProt) Recommended Name of Target Chain>
DNA repair protein RAD51 homolog 1

> <UniProt (SwissProt) Entry Name of Target Chain>
RAD51_HUMAN

> <UniProt (SwissProt) Primary ID of Target Chain>
Q06609

> <UniProt (SwissProt) Secondary ID(s) of Target Chain>
B0FXP0 B2R8T6 Q6FHX9 Q6ZNA8 Q9BV60

> <UniProt (SwissProt) Alternative ID(s) of Target Chain>


> <UniProt (TrEMBL) Submitted Name of Target Chain>


> <UniProt (TrEMBL) Entry Name of Target Chain>


> <UniProt (TrEMBL) Primary ID of Target Chain>


> <UniProt (TrEMBL) Secondary ID(s) of Target Chain>


> <UniProt (TrEMBL) Alternative ID(s) of Target Chain>


$$$$
00287001.cdx
  Mrv0541 07212217012D          

 34 36  0  0  0  0            999 V2000
   -2.8483    0.2063    0.0000 C   0  0  0  0  0  0  0  0  0  0  0  0
   -2.8483   -0.6187    0.0000 C   0  0  0  0  0  0  0  0  0  0  0  0
   -2.1338   -1.0312    0.0000 C   0  0  0  0  0  0  0  0  0  0  0  0
   -1.4193   -0.6187    0.0000 C   0  0  0  0  0  0  0  0  0  0  0  0
   -1.4193    0.2063    0.0000 C   0  0  0  0  0  0  0  0  0  0  0  0
   -2.1338    0.6188    0.0000 C   0  0  0  0  0  0  0  0  0  0  0  0
   -3.5627   -1.0312    0.0000 N   0  0  0  0  0  0  0  0  0  0  0  0
   -4.2772   -0.6187    0.0000 C   0  0  0  0  0  0  0  0  0  0  0  0
   -4.9917   -1.0312    0.0000 C   0  0  0  0  0  0  0  0  0  0  0  0
   -4.2772    0.2063    0.0000 O   0  0  0  0  0  0  0  0  0  0  0  0
   -0.7048   -1.0312    0.0000 S   0  0  0  0  0  0  0  0  0  0  0  0
    0.0096   -1.4437    0.0000 N   0  0  0  0  0  0  0  0  0  0  0  0
   -0.2923   -0.3168    0.0000 O   0  0  0  0  0  0  0  0  0  0  0  0
   -1.1173   -1.7457    0.0000 O   0  0  0  0  0  0  0  0  0  0  0  0
    0.7241   -1.0312    0.0000 C   0  0  0  0  0  0  0  0  0  0  0  0
    1.4386   -1.4437    0.0000 C   0  0  0  0  0  0  0  0  0  0  0  0
    0.7241   -0.2062    0.0000 C   0  0  0  0  0  0  0  0  0  0  0  0
    1.4386   -0.6187    0.0000 C   0  0  0  0  0  0  0  0  0  0  0  0
   -0.7048    1.4438    0.0000 C   0  0  0  0  0  0  0  0  0  0  0  0
   -0.7048    0.6188    0.0000 C   0  0  0  0  0  0  0  0  0  0  0  0
    0.0798    0.3638    0.0000 S   0  0  0  0  0  0  0  0  0  0  0  0
    0.5647    1.0313    0.0000 C   0  0  0  0  0  0  0  0  0  0  0  0
    0.0798    1.6987    0.0000 N   0  0  0  0  0  0  0  0  0  0  0  0
    1.3897    1.0313    0.0000 C   0  0  0  0  0  0  0  0  0  0  0  0
    1.8022    0.3168    0.0000 C   0  0  0  0  0  0  0  0  0  0  0  0
    2.6272    0.3168    0.0000 C   0  0  0  0  0  0  0  0  0  0  0  0
    3.0397    1.0313    0.0000 C   0  0  0  0  0  0  0  0  0  0  0  0
    2.6272    1.7457    0.0000 C   0  0  0  0  0  0  0  0  0  0  0  0
    1.8022    1.7457    0.0000 C   0  0  0  0  0  0  0  0  0  0  0  0
    3.8647    1.0313    0.0000 N   0  0  0  0  0  0  0  0  0  0  0  0
    4.2772    0.3168    0.0000 S   0  0  0  0  0  0  0  0  0  0  0  0
    4.6897   -0.3977    0.0000 O   0  0  0  0  0  0  0  0  0  0  0  0
    4.9917    0.7293    0.0000 C   0  0  0  0  0  0  0  0  0  0  0  0
    3.5627   -0.0957    0.0000 O   0  0  0  0  0  0  0  0  0  0  0  0
  1  2  4  0  0  0  0
  2  3  4  0  0  0  0
  3  4  4  0  0  0  0
  4  5  4  0  0  0  0
  5  6  4  0  0  0  0
  6  1  4  0  0  0  0
  2  7  1  0  0  0  0
  7  8  1  0  0  0  0
  8  9  1  0  0  0  0
  8 10  2  0  0  0  0
  4 11  1  0  0  0  0
 11 12  1  0  0  0  0
 11 13  2  0  0  0  0
 11 14  2  0  0  0  0
 12 15  1  0  0  0  0
 15 16  1  0  0  0  0
 15 17  1  0  0  0  0
 15 18  1  0  0  0  0
  5 20  1  0  0  0  0
 19 20  4  0  0  0  0
 20 21  4  0  0  0  0
 21 22  4  0  0  0  0
 22 23  4  0  0  0  0
 23 19  4  0  0  0  0
 22 24  1  0  0  0  0
 24 25  4  0  0  0  0
 25 26  4  0  0  0  0
 26 27  4  0  0  0  0
 27 28  4  0  0  0  0
 28 29  4  0  0  0  0
 29 24  4  0  0  0  0
 27 30  1  0  0  0  0
 30 31  1  0  0  0  0
 31 32  2  0  0  0  0
 31 33  1  0  0  0  0
 31 34  2  0  0  0  0
M  END
> <From>
www.bindingDB.org

> <BindingDB Reactant_set_id>
1155277

> <Ligand InChI>
InChI=1S/C22H26N4O5S3/c1-14(27)24-17-10-11-18(20(12-17)34(30,31)26-22(2,3)4)19-13-23-21(32-19)15-6-8-16(9-7-15)25-33(5,28)29/h6-13,25-26H,1-5H3,(H,24,27)

> <Ligand InChI Key>
OYPWHIPLSSANEX-UHFFFAOYSA-N

> <BindingDB MonomerID>
546428

> <BindingDB Ligand Name>
US11291655, No G5

> <Target Name>
DNA repair protein RAD51 homolog 1

> <Target Source Organism According to Curator or DataSource>
Homo sapiens

> <Ki (nM)>


> <IC50 (nM)>


> <Kd (nM)>


> <EC50 (nM)>
>10000

> <kon (M-1-s-1)>


> <koff (s-1)>


> <pH>


> <Temp C>


> <Curation/DataSource>
US Patent

> <Article DOI>


> <BindingDB Entry DOI>
10.7270/Q2NG4TV0

> <PMID>


> <PubChem AID>
aid1806421

> <Patent Number>
US11291655

> <Authors>
Castro, AC; McComas, CC; Vacca, J

> <Date of publication>
4/5/2022

> <Date in BindingDB>
7/21/2022

> <Institution>
Cyteir Therapeutics, Inc.

> <Link to Ligand in BindingDB>
http://www.bindingdb.org/bind/chemsearch/marvin/MolStructure.jsp?monomerid=546428

> <Link to Ligand-Target Pair in BindingDB>
http://www.bindingdb.org/jsp/dbsearch/PrimarySearch_ki.jsp?energyterm=kJ/mole&tag=pol&polymerid=4676&target=DNA+repair+protein+RAD51+homolog+1&column=ki&startPg=0&Increment=50&submit=Search

> <Link to Ligand-Target Pair in BindingDB>
http://www.bindingdb.org/jsp/dbsearch/PrimarySearch_ki.jsp?energyterm=kJ/mole&tag=r21&monomerid=546428&enzyme=DNA+repair+protein+RAD51+homolog+1&column=ki&startPg=0&Increment=50&submit=Search

> <Ligand HET ID in PDB>


> <PDB ID(s) for Ligand-Target Complex>


> <PubChem CID of Ligand>
137411834

> <PubChem SID of Ligand>
469681124

> <ChEBI ID of Ligand>


> <ChEMBL ID of Ligand>


> <DrugBank ID of Ligand>


> <IUPHAR_GRAC ID of Ligand>


> <KEGG ID of Ligand>


> <ZINC ID of Ligand>


> <Number of Protein Chains in Target (bigger than 1 implies a multichain complex)>
1

> <BindingDB Target Chain Sequence>
MAMQMQLEANADTSVEEESFGPQPISRLEQCGINANDVKKLEEAGFHTVEAVAYAPKKELINIKGISEAKADKILAEAAKLVPMGFTTATEFHQRRSEIIQITTGSKELDKLLQGGIETGSITEMFGEFRTGKTQICHTLAVTCQLPIDRGGGEGKAMYIDTEGTFRPERLLAVAERYGLSGSDVLDNVAYARAFNTDHQTQLLYQASAMMVESRYALLIVDSATALYRTDYSGRGELSARQMHLARFLRMLLRLADEFGVAVVITNQVVAQVDGAAMFAADPKKPIGGNIIAHASTTRLYLRKGRGETRICKIYDSPCLPEAEAMFAINADGVGDAKD

> <PDB ID(s) of Target Chain>
1N0W,5JZC,5NP7,5NWL,8BQ2,8BR2,8BSC

> <UniProt (SwissProt) Recommended Name of Target Chain>
DNA repair protein RAD51 homolog 1

> <UniProt (SwissProt) Entry Name of Target Chain>
RAD51_HUMAN

> <UniProt (SwissProt) Primary ID of Target Chain>
Q06609

> <UniProt (SwissProt) Secondary ID(s) of Target Chain>
B0FXP0 B2R8T6 Q6FHX9 Q6ZNA8 Q9BV60

> <UniProt (SwissProt) Alternative ID(s) of Target Chain>


> <UniProt (TrEMBL) Submitted Name of Target Chain>


> <UniProt (TrEMBL) Entry Name of Target Chain>


> <UniProt (TrEMBL) Primary ID of Target Chain>


> <UniProt (TrEMBL) Secondary ID(s) of Target Chain>


> <UniProt (TrEMBL) Alternative ID(s) of Target Chain>


$$$$
00288001.cdx
  Mrv0541 07212217012D          

 39 42  0  0  0  0            999 V2000
   -3.5627    0.0957    0.0000 C   0  0  0  0  0  0  0  0  0  0  0  0
   -3.5627   -0.7293    0.0000 C   0  0  0  0  0  0  0  0  0  0  0  0
   -2.8483   -1.1418    0.0000 C   0  0  0  0  0  0  0  0  0  0  0  0
   -2.1338   -0.7293    0.0000 C   0  0  0  0  0  0  0  0  0  0  0  0
   -2.1338    0.0957    0.0000 C   0  0  0  0  0  0  0  0  0  0  0  0
   -2.8483    0.5082    0.0000 C   0  0  0  0  0  0  0  0  0  0  0  0
   -4.2772   -1.1418    0.0000 N   0  0  0  0  0  0  0  0  0  0  0  0
   -4.9917   -0.7293    0.0000 C   0  0  0  0  0  0  0  0  0  0  0  0
   -5.7061   -1.1418    0.0000 C   0  0  0  0  0  0  0  0  0  0  0  0
   -4.9917    0.0957    0.0000 O   0  0  0  0  0  0  0  0  0  0  0  0
   -1.4193   -1.1418    0.0000 S   0  0  0  0  0  0  0  0  0  0  0  0
   -0.7048   -1.5543    0.0000 N   0  0  0  0  0  0  0  0  0  0  0  0
   -1.0068   -0.4273    0.0000 O   0  0  0  0  0  0  0  0  0  0  0  0
   -1.8318   -1.8563    0.0000 O   0  0  0  0  0  0  0  0  0  0  0  0
    0.0096   -1.1418    0.0000 C   0  0  0  0  0  0  0  0  0  0  0  0
    0.7241   -1.5543    0.0000 C   0  0  0  0  0  0  0  0  0  0  0  0
    0.0096   -0.3168    0.0000 C   0  0  0  0  0  0  0  0  0  0  0  0
    0.7241   -0.7293    0.0000 C   0  0  0  0  0  0  0  0  0  0  0  0
   -1.4193    1.3332    0.0000 C   0  0  0  0  0  0  0  0  0  0  0  0
   -1.4193    0.5082    0.0000 C   0  0  0  0  0  0  0  0  0  0  0  0
   -0.6347    0.2533    0.0000 S   0  0  0  0  0  0  0  0  0  0  0  0
   -0.1498    0.9207    0.0000 C   0  0  0  0  0  0  0  0  0  0  0  0
   -0.6347    1.5882    0.0000 N   0  0  0  0  0  0  0  0  0  0  0  0
    0.6752    0.9207    0.0000 C   0  0  0  0  0  0  0  0  0  0  0  0
    1.0877    0.2062    0.0000 C   0  0  0  0  0  0  0  0  0  0  0  0
    1.9127    0.2062    0.0000 C   0  0  0  0  0  0  0  0  0  0  0  0
    2.3252    0.9207    0.0000 C   0  0  0  0  0  0  0  0  0  0  0  0
    1.9127    1.6352    0.0000 C   0  0  0  0  0  0  0  0  0  0  0  0
    1.0877    1.6352    0.0000 C   0  0  0  0  0  0  0  0  0  0  0  0
    3.1502    0.9207    0.0000 N   0  0  0  0  0  0  0  0  0  0  0  0
    3.5627    0.2062    0.0000 S   0  0  0  0  0  0  0  0  0  0  0  0
    3.9752   -0.5082    0.0000 O   0  0  0  0  0  0  0  0  0  0  0  0
    4.2772    0.6187    0.0000 C   0  0  0  0  0  0  0  0  0  0  0  0
    2.8483   -0.2062    0.0000 O   0  0  0  0  0  0  0  0  0  0  0  0
    4.9917    0.2062    0.0000 C   0  0  0  0  0  0  0  0  0  0  0  0
    5.7061    0.6187    0.0000 C   0  0  0  0  0  0  0  0  0  0  0  0
    5.7061    1.4437    0.0000 C   0  0  0  0  0  0  0  0  0  0  0  0
    4.9917    1.8563    0.0000 C   0  0  0  0  0  0  0  0  0  0  0  0
    4.2772    1.4437    0.0000 C   0  0  0  0  0  0  0  0  0  0  0  0
  1  2  4  0  0  0  0
  2  3  4  0  0  0  0
  3  4  4  0  0  0  0
  4  5  4  0  0  0  0
  5  6  4  0  0  0  0
  6  1  4  0  0  0  0
  2  7  1  0  0  0  0
  7  8  1  0  0  0  0
  8  9  1  0  0  0  0
  8 10  2  0  0  0  0
  4 11  1  0  0  0  0
 11 12  1  0  0  0  0
 11 13  2  0  0  0  0
 11 14  2  0  0  0  0
 12 15  1  0  0  0  0
 15 16  1  0  0  0  0
 15 17  1  0  0  0  0
 15 18  1  0  0  0  0
  5 20  1  0  0  0  0
 19 20  4  0  0  0  0
 20 21  4  0  0  0  0
 21 22  4  0  0  0  0
 22 23  4  0  0  0  0
 23 19  4  0  0  0  0
 22 24  1  0  0  0  0
 24 25  4  0  0  0  0
 25 26  4  0  0  0  0
 26 27  4  0  0  0  0
 27 28  4  0  0  0  0
 28 29  4  0  0  0  0
 29 24  4  0  0  0  0
 27 30  1  0  0  0  0
 30 31  1  0  0  0  0
 31 32  2  0  0  0  0
 31 33  1  0  0  0  0
 31 34  2  0  0  0  0
 33 35  4  0  0  0  0
 35 36  4  0  0  0  0
 36 37  4  0  0  0  0
 37 38  4  0  0  0  0
 38 39  4  0  0  0  0
 39 33  4  0  0  0  0
M  END
> <From>
www.bindingDB.org

> <BindingDB Reactant_set_id>
1155278

> <Ligand InChI>
InChI=1S/C27H28N4O5S3/c1-18(32)29-21-14-15-23(25(16-21)39(35,36)31-27(2,3)4)24-17-28-26(37-24)19-10-12-20(13-11-19)30-38(33,34)22-8-6-5-7-9-22/h5-17,30-31H,1-4H3,(H,29,32)

> <Ligand InChI Key>
RQRWDDIEJSTUBK-UHFFFAOYSA-N

> <BindingDB MonomerID>
546429

> <BindingDB Ligand Name>
US11291655, No G6

> <Target Name>
DNA repair protein RAD51 homolog 1

> <Target Source Organism According to Curator or DataSource>
Homo sapiens

> <Ki (nM)>


> <IC50 (nM)>


> <Kd (nM)>


> <EC50 (nM)>
<10000

> <kon (M-1-s-1)>


> <koff (s-1)>


> <pH>


> <Temp C>


> <Curation/DataSource>
US Patent

> <Article DOI>


> <BindingDB Entry DOI>
10.7270/Q2NG4TV0

> <PMID>


> <PubChem AID>
aid1806421

> <Patent Number>
US11291655

> <Authors>
Castro, AC; McComas, CC; Vacca, J

> <Date of publication>
4/5/2022

> <Date in BindingDB>
7/21/2022

> <Institution>
Cyteir Therapeutics, Inc.

> <Link to Ligand in BindingDB>
http://www.bindingdb.org/bind/chemsearch/marvin/MolStructure.jsp?monomerid=546429

> <Link to Ligand-Target Pair in BindingDB>
http://www.bindingdb.org/jsp/dbsearch/PrimarySearch_ki.jsp?energyterm=kJ/mole&tag=pol&polymerid=4676&target=DNA+repair+protein+RAD51+homolog+1&column=ki&startPg=0&Increment=50&submit=Search

> <Link to Ligand-Target Pair in BindingDB>
http://www.bindingdb.org/jsp/dbsearch/PrimarySearch_ki.jsp?energyterm=kJ/mole&tag=r21&monomerid=546429&enzyme=DNA+repair+protein+RAD51+homolog+1&column=ki&startPg=0&Increment=50&submit=Search

> <Ligand HET ID in PDB>


> <PDB ID(s) for Ligand-Target Complex>


> <PubChem CID of Ligand>
137411876

> <PubChem SID of Ligand>
469681125

> <ChEBI ID of Ligand>


> <ChEMBL ID of Ligand>


> <DrugBank ID of Ligand>


> <IUPHAR_GRAC ID of Ligand>


> <KEGG ID of Ligand>


> <ZINC ID of Ligand>


> <Number of Protein Chains in Target (bigger than 1 implies a multichain complex)>
1

> <BindingDB Target Chain Sequence>
MAMQMQLEANADTSVEEESFGPQPISRLEQCGINANDVKKLEEAGFHTVEAVAYAPKKELINIKGISEAKADKILAEAAKLVPMGFTTATEFHQRRSEIIQITTGSKELDKLLQGGIETGSITEMFGEFRTGKTQICHTLAVTCQLPIDRGGGEGKAMYIDTEGTFRPERLLAVAERYGLSGSDVLDNVAYARAFNTDHQTQLLYQASAMMVESRYALLIVDSATALYRTDYSGRGELSARQMHLARFLRMLLRLADEFGVAVVITNQVVAQVDGAAMFAADPKKPIGGNIIAHASTTRLYLRKGRGETRICKIYDSPCLPEAEAMFAINADGVGDAKD

> <PDB ID(s) of Target Chain>
1N0W,5JZC,5NP7,5NWL,8BQ2,8BR2,8BSC

> <UniProt (SwissProt) Recommended Name of Target Chain>
DNA repair protein RAD51 homolog 1

> <UniProt (SwissProt) Entry Name of Target Chain>
RAD51_HUMAN

> <UniProt (SwissProt) Primary ID of Target Chain>
Q06609

> <UniProt (SwissProt) Secondary ID(s) of Target Chain>
B0FXP0 B2R8T6 Q6FHX9 Q6ZNA8 Q9BV60

> <UniProt (SwissProt) Alternative ID(s) of Target Chain>


> <UniProt (TrEMBL) Submitted Name of Target Chain>


> <UniProt (TrEMBL) Entry Name of Target Chain>


> <UniProt (TrEMBL) Primary ID of Target Chain>


> <UniProt (TrEMBL) Secondary ID(s) of Target Chain>


> <UniProt (TrEMBL) Alternative ID(s) of Target Chain>


$$$$
00289001.cdx
  Mrv0541 07212217012D          

 35 37  0  0  0  0            999 V2000
   -3.2055    0.2063    0.0000 C   0  0  0  0  0  0  0  0  0  0  0  0
   -3.2055   -0.6187    0.0000 C   0  0  0  0  0  0  0  0  0  0  0  0
   -2.4910   -1.0312    0.0000 C   0  0  0  0  0  0  0  0  0  0  0  0
   -1.7766   -0.6187    0.0000 C   0  0  0  0  0  0  0  0  0  0  0  0
   -1.7766    0.2063    0.0000 C   0  0  0  0  0  0  0  0  0  0  0  0
   -2.4910    0.6188    0.0000 C   0  0  0  0  0  0  0  0  0  0  0  0
   -3.9200   -1.0312    0.0000 N   0  0  0  0  0  0  0  0  0  0  0  0
   -4.6344   -0.6187    0.0000 C   0  0  0  0  0  0  0  0  0  0  0  0
   -5.3489   -1.0312    0.0000 C   0  0  0  0  0  0  0  0  0  0  0  0
   -4.6344    0.2063    0.0000 O   0  0  0  0  0  0  0  0  0  0  0  0
   -1.0621   -1.0312    0.0000 S   0  0  0  0  0  0  0  0  0  0  0  0
   -0.3476   -1.4437    0.0000 N   0  0  0  0  0  0  0  0  0  0  0  0
   -0.6496   -0.3168    0.0000 O   0  0  0  0  0  0  0  0  0  0  0  0
   -1.4746   -1.7457    0.0000 O   0  0  0  0  0  0  0  0  0  0  0  0
    0.3669   -1.0312    0.0000 C   0  0  0  0  0  0  0  0  0  0  0  0
    1.0813   -1.4437    0.0000 C   0  0  0  0  0  0  0  0  0  0  0  0
    0.3669   -0.2062    0.0000 C   0  0  0  0  0  0  0  0  0  0  0  0
    1.0813   -0.6187    0.0000 C   0  0  0  0  0  0  0  0  0  0  0  0
   -1.0621    1.4438    0.0000 C   0  0  0  0  0  0  0  0  0  0  0  0
   -1.0621    0.6188    0.0000 C   0  0  0  0  0  0  0  0  0  0  0  0
   -0.2775    0.3638    0.0000 S   0  0  0  0  0  0  0  0  0  0  0  0
    0.2075    1.0313    0.0000 C   0  0  0  0  0  0  0  0  0  0  0  0
   -0.2775    1.6987    0.0000 N   0  0  0  0  0  0  0  0  0  0  0  0
    1.0325    1.0313    0.0000 C   0  0  0  0  0  0  0  0  0  0  0  0
    1.4450    0.3168    0.0000 C   0  0  0  0  0  0  0  0  0  0  0  0
    2.2700    0.3168    0.0000 C   0  0  0  0  0  0  0  0  0  0  0  0
    2.6825    1.0313    0.0000 C   0  0  0  0  0  0  0  0  0  0  0  0
    2.2700    1.7457    0.0000 C   0  0  0  0  0  0  0  0  0  0  0  0
    1.4450    1.7457    0.0000 C   0  0  0  0  0  0  0  0  0  0  0  0
    3.5075    1.0313    0.0000 N   0  0  0  0  0  0  0  0  0  0  0  0
    3.9200    0.3168    0.0000 S   0  0  0  0  0  0  0  0  0  0  0  0
    4.3325   -0.3977    0.0000 O   0  0  0  0  0  0  0  0  0  0  0  0
    4.6344    0.7293    0.0000 C   0  0  0  0  0  0  0  0  0  0  0  0
    3.2055   -0.0957    0.0000 O   0  0  0  0  0  0  0  0  0  0  0  0
    5.3489    0.3168    0.0000 C   0  0  0  0  0  0  0  0  0  0  0  0
  1  2  4  0  0  0  0
  2  3  4  0  0  0  0
  3  4  4  0  0  0  0
  4  5  4  0  0  0  0
  5  6  4  0  0  0  0
  6  1  4  0  0  0  0
  2  7  1  0  0  0  0
  7  8  1  0  0  0  0
  8  9  1  0  0  0  0
  8 10  2  0  0  0  0
  4 11  1  0  0  0  0
 11 12  1  0  0  0  0
 11 13  2  0  0  0  0
 11 14  2  0  0  0  0
 12 15  1  0  0  0  0
 15 16  1  0  0  0  0
 15 17  1  0  0  0  0
 15 18  1  0  0  0  0
  5 20  1  0  0  0  0
 19 20  4  0  0  0  0
 20 21  4  0  0  0  0
 21 22  4  0  0  0  0
 22 23  4  0  0  0  0
 23 19  4  0  0  0  0
 22 24  1  0  0  0  0
 24 25  4  0  0  0  0
 25 26  4  0  0  0  0
 26 27  4  0  0  0  0
 27 28  4  0  0  0  0
 28 29  4  0  0  0  0
 29 24  4  0  0  0  0
 27 30  1  0  0  0  0
 30 31  1  0  0  0  0
 31 32  2  0  0  0  0
 31 33  1  0  0  0  0
 31 34  2  0  0  0  0
 33 35  1  0  0  0  0
M  END
> <From>
www.bindingDB.org

> <BindingDB Reactant_set_id>
1155279

> <Ligand InChI>
InChI=1S/C23H28N4O5S3/c1-6-34(29,30)26-17-9-7-16(8-10-17)22-24-14-20(33-22)19-12-11-18(25-15(2)28)13-21(19)35(31,32)27-23(3,4)5/h7-14,26-27H,6H2,1-5H3,(H,25,28)

> <Ligand InChI Key>
AXFBODOAJHBTSH-UHFFFAOYSA-N

> <BindingDB MonomerID>
546430

> <BindingDB Ligand Name>
US11291655, No G7

> <Target Name>
DNA repair protein RAD51 homolog 1

> <Target Source Organism According to Curator or DataSource>
Homo sapiens

> <Ki (nM)>


> <IC50 (nM)>


> <Kd (nM)>


> <EC50 (nM)>
>10000

> <kon (M-1-s-1)>


> <koff (s-1)>


> <pH>


> <Temp C>


> <Curation/DataSource>
US Patent

> <Article DOI>


> <BindingDB Entry DOI>
10.7270/Q2NG4TV0

> <PMID>


> <PubChem AID>
aid1806421

> <Patent Number>
US11291655

> <Authors>
Castro, AC; McComas, CC; Vacca, J

> <Date of publication>
4/5/2022

> <Date in BindingDB>
7/21/2022

> <Institution>
Cyteir Therapeutics, Inc.

> <Link to Ligand in BindingDB>
http://www.bindingdb.org/bind/chemsearch/marvin/MolStructure.jsp?monomerid=546430

> <Link to Ligand-Target Pair in BindingDB>
http://www.bindingdb.org/jsp/dbsearch/PrimarySearch_ki.jsp?energyterm=kJ/mole&tag=pol&polymerid=4676&target=DNA+repair+protein+RAD51+homolog+1&column=ki&startPg=0&Increment=50&submit=Search

> <Link to Ligand-Target Pair in BindingDB>
http://www.bindingdb.org/jsp/dbsearch/PrimarySearch_ki.jsp?energyterm=kJ/mole&tag=r21&monomerid=546430&enzyme=DNA+repair+protein+RAD51+homolog+1&column=ki&startPg=0&Increment=50&submit=Search

> <Ligand HET ID in PDB>


> <PDB ID(s) for Ligand-Target Complex>


> <PubChem CID of Ligand>
137411861

> <PubChem SID of Ligand>
469681126

> <ChEBI ID of Ligand>


> <ChEMBL ID of Ligand>


> <DrugBank ID of Ligand>


> <IUPHAR_GRAC ID of Ligand>


> <KEGG ID of Ligand>


> <ZINC ID of Ligand>


> <Number of Protein Chains in Target (bigger than 1 implies a multichain complex)>
1

> <BindingDB Target Chain Sequence>
MAMQMQLEANADTSVEEESFGPQPISRLEQCGINANDVKKLEEAGFHTVEAVAYAPKKELINIKGISEAKADKILAEAAKLVPMGFTTATEFHQRRSEIIQITTGSKELDKLLQGGIETGSITEMFGEFRTGKTQICHTLAVTCQLPIDRGGGEGKAMYIDTEGTFRPERLLAVAERYGLSGSDVLDNVAYARAFNTDHQTQLLYQASAMMVESRYALLIVDSATALYRTDYSGRGELSARQMHLARFLRMLLRLADEFGVAVVITNQVVAQVDGAAMFAADPKKPIGGNIIAHASTTRLYLRKGRGETRICKIYDSPCLPEAEAMFAINADGVGDAKD

> <PDB ID(s) of Target Chain>
1N0W,5JZC,5NP7,5NWL,8BQ2,8BR2,8BSC

> <UniProt (SwissProt) Recommended Name of Target Chain>
DNA repair protein RAD51 homolog 1

> <UniProt (SwissProt) Entry Name of Target Chain>
RAD51_HUMAN

> <UniProt (SwissProt) Primary ID of Target Chain>
Q06609

> <UniProt (SwissProt) Secondary ID(s) of Target Chain>
B0FXP0 B2R8T6 Q6FHX9 Q6ZNA8 Q9BV60

> <UniProt (SwissProt) Alternative ID(s) of Target Chain>


> <UniProt (TrEMBL) Submitted Name of Target Chain>


> <UniProt (TrEMBL) Entry Name of Target Chain>


> <UniProt (TrEMBL) Primary ID of Target Chain>


> <UniProt (TrEMBL) Secondary ID(s) of Target Chain>


> <UniProt (TrEMBL) Alternative ID(s) of Target Chain>


$$$$
00290001.cdx
  Mrv0541 07212217012D          

 37 39  0  0  0  0            999 V2000
   -3.9200    0.2063    0.0000 C   0  0  0  0  0  0  0  0  0  0  0  0
   -3.9200   -0.6187    0.0000 C   0  0  0  0  0  0  0  0  0  0  0  0
   -3.2055   -1.0312    0.0000 C   0  0  0  0  0  0  0  0  0  0  0  0
   -2.4910   -0.6187    0.0000 C   0  0  0  0  0  0  0  0  0  0  0  0
   -2.4910    0.2063    0.0000 C   0  0  0  0  0  0  0  0  0  0  0  0
   -3.2055    0.6188    0.0000 C   0  0  0  0  0  0  0  0  0  0  0  0
   -4.6344   -1.0312    0.0000 N   0  0  0  0  0  0  0  0  0  0  0  0
   -5.3489   -0.6187    0.0000 C   0  0  0  0  0  0  0  0  0  0  0  0
   -6.0634   -1.0312    0.0000 C   0  0  0  0  0  0  0  0  0  0  0  0
   -5.3489    0.2063    0.0000 O   0  0  0  0  0  0  0  0  0  0  0  0
   -1.7766   -1.0312    0.0000 S   0  0  0  0  0  0  0  0  0  0  0  0
   -1.0621   -1.4437    0.0000 N   0  0  0  0  0  0  0  0  0  0  0  0
   -1.3641   -0.3168    0.0000 O   0  0  0  0  0  0  0  0  0  0  0  0
   -2.1891   -1.7457    0.0000 O   0  0  0  0  0  0  0  0  0  0  0  0
   -0.3476   -1.0312    0.0000 C   0  0  0  0  0  0  0  0  0  0  0  0
    0.3669   -1.4437    0.0000 C   0  0  0  0  0  0  0  0  0  0  0  0
   -0.3476   -0.2062    0.0000 C   0  0  0  0  0  0  0  0  0  0  0  0
    0.3669   -0.6187    0.0000 C   0  0  0  0  0  0  0  0  0  0  0  0
   -1.7766    1.4438    0.0000 C   0  0  0  0  0  0  0  0  0  0  0  0
   -1.7766    0.6188    0.0000 C   0  0  0  0  0  0  0  0  0  0  0  0
   -0.9919    0.3638    0.0000 S   0  0  0  0  0  0  0  0  0  0  0  0
   -0.5070    1.0313    0.0000 C   0  0  0  0  0  0  0  0  0  0  0  0
   -0.9919    1.6987    0.0000 N   0  0  0  0  0  0  0  0  0  0  0  0
    0.3180    1.0313    0.0000 C   0  0  0  0  0  0  0  0  0  0  0  0
    0.7305    0.3168    0.0000 C   0  0  0  0  0  0  0  0  0  0  0  0
    1.5555    0.3168    0.0000 C   0  0  0  0  0  0  0  0  0  0  0  0
    1.9680    1.0313    0.0000 C   0  0  0  0  0  0  0  0  0  0  0  0
    1.5555    1.7457    0.0000 C   0  0  0  0  0  0  0  0  0  0  0  0
    0.7305    1.7457    0.0000 C   0  0  0  0  0  0  0  0  0  0  0  0
    2.7930    1.0313    0.0000 N   0  0  0  0  0  0  0  0  0  0  0  0
    3.2055    0.3168    0.0000 S   0  0  0  0  0  0  0  0  0  0  0  0
    3.6180   -0.3977    0.0000 O   0  0  0  0  0  0  0  0  0  0  0  0
    3.9200    0.7293    0.0000 C   0  0  0  0  0  0  0  0  0  0  0  0
    2.4910   -0.0957    0.0000 O   0  0  0  0  0  0  0  0  0  0  0  0
    4.6344    0.3168    0.0000 C   0  0  0  0  0  0  0  0  0  0  0  0
    5.3489    0.7293    0.0000 O   0  0  0  0  0  0  0  0  0  0  0  0
    6.0634    0.3168    0.0000 C   0  0  0  0  0  0  0  0  0  0  0  0
  1  2  4  0  0  0  0
  2  3  4  0  0  0  0
  3  4  4  0  0  0  0
  4  5  4  0  0  0  0
  5  6  4  0  0  0  0
  6  1  4  0  0  0  0
  2  7  1  0  0  0  0
  7  8  1  0  0  0  0
  8  9  1  0  0  0  0
  8 10  2  0  0  0  0
  4 11  1  0  0  0  0
 11 12  1  0  0  0  0
 11 13  2  0  0  0  0
 11 14  2  0  0  0  0
 12 15  1  0  0  0  0
 15 16  1  0  0  0  0
 15 17  1  0  0  0  0
 15 18  1  0  0  0  0
  5 20  1  0  0  0  0
 19 20  4  0  0  0  0
 20 21  4  0  0  0  0
 21 22  4  0  0  0  0
 22 23  4  0  0  0  0
 23 19  4  0  0  0  0
 22 24  1  0  0  0  0
 24 25  4  0  0  0  0
 25 26  4  0  0  0  0
 26 27  4  0  0  0  0
 27 28  4  0  0  0  0
 28 29  4  0  0  0  0
 29 24  4  0  0  0  0
 27 30  1  0  0  0  0
 30 31  1  0  0  0  0
 31 32  2  0  0  0  0
 31 33  1  0  0  0  0
 31 34  2  0  0  0  0
 33 35  1  0  0  0  0
 35 36  1  0  0  0  0
 36 37  1  0  0  0  0
M  END
> <From>
www.bindingDB.org

> <BindingDB Reactant_set_id>
1155280

> <Ligand InChI>
InChI=1S/C24H30N4O6S3/c1-16(29)26-19-10-11-20(22(14-19)37(32,33)28-24(2,3)4)21-15-25-23(35-21)17-6-8-18(9-7-17)27-36(30,31)13-12-34-5/h6-11,14-15,27-28H,12-13H2,1-5H3,(H,26,29)

> <Ligand InChI Key>
CRLKHIUOVQZQIH-UHFFFAOYSA-N

> <BindingDB MonomerID>
546431

> <BindingDB Ligand Name>
US11291655, No G8

> <Target Name>
DNA repair protein RAD51 homolog 1

> <Target Source Organism According to Curator or DataSource>
Homo sapiens

> <Ki (nM)>


> <IC50 (nM)>


> <Kd (nM)>


> <EC50 (nM)>
>10000

> <kon (M-1-s-1)>


> <koff (s-1)>


> <pH>


> <Temp C>


> <Curation/DataSource>
US Patent

> <Article DOI>


> <BindingDB Entry DOI>
10.7270/Q2NG4TV0

> <PMID>


> <PubChem AID>
aid1806421

> <Patent Number>
US11291655

> <Authors>
Castro, AC; McComas, CC; Vacca, J

> <Date of publication>
4/5/2022

> <Date in BindingDB>
7/21/2022

> <Institution>
Cyteir Therapeutics, Inc.

> <Link to Ligand in BindingDB>
http://www.bindingdb.org/bind/chemsearch/marvin/MolStructure.jsp?monomerid=546431

> <Link to Ligand-Target Pair in BindingDB>
http://www.bindingdb.org/jsp/dbsearch/PrimarySearch_ki.jsp?energyterm=kJ/mole&tag=pol&polymerid=4676&target=DNA+repair+protein+RAD51+homolog+1&column=ki&startPg=0&Increment=50&submit=Search

> <Link to Ligand-Target Pair in BindingDB>
http://www.bindingdb.org/jsp/dbsearch/PrimarySearch_ki.jsp?energyterm=kJ/mole&tag=r21&monomerid=546431&enzyme=DNA+repair+protein+RAD51+homolog+1&column=ki&startPg=0&Increment=50&submit=Search

> <Ligand HET ID in PDB>


> <PDB ID(s) for Ligand-Target Complex>


> <PubChem CID of Ligand>
137412041

> <PubChem SID of Ligand>
469681127

> <ChEBI ID of Ligand>


> <ChEMBL ID of Ligand>


> <DrugBank ID of Ligand>


> <IUPHAR_GRAC ID of Ligand>


> <KEGG ID of Ligand>


> <ZINC ID of Ligand>


> <Number of Protein Chains in Target (bigger than 1 implies a multichain complex)>
1

> <BindingDB Target Chain Sequence>
MAMQMQLEANADTSVEEESFGPQPISRLEQCGINANDVKKLEEAGFHTVEAVAYAPKKELINIKGISEAKADKILAEAAKLVPMGFTTATEFHQRRSEIIQITTGSKELDKLLQGGIETGSITEMFGEFRTGKTQICHTLAVTCQLPIDRGGGEGKAMYIDTEGTFRPERLLAVAERYGLSGSDVLDNVAYARAFNTDHQTQLLYQASAMMVESRYALLIVDSATALYRTDYSGRGELSARQMHLARFLRMLLRLADEFGVAVVITNQVVAQVDGAAMFAADPKKPIGGNIIAHASTTRLYLRKGRGETRICKIYDSPCLPEAEAMFAINADGVGDAKD

> <PDB ID(s) of Target Chain>
1N0W,5JZC,5NP7,5NWL,8BQ2,8BR2,8BSC

> <UniProt (SwissProt) Recommended Name of Target Chain>
DNA repair protein RAD51 homolog 1

> <UniProt (SwissProt) Entry Name of Target Chain>
RAD51_HUMAN

> <UniProt (SwissProt) Primary ID of Target Chain>
Q06609

> <UniProt (SwissProt) Secondary ID(s) of Target Chain>
B0FXP0 B2R8T6 Q6FHX9 Q6ZNA8 Q9BV60

> <UniProt (SwissProt) Alternative ID(s) of Target Chain>


> <UniProt (TrEMBL) Submitted Name of Target Chain>


> <UniProt (TrEMBL) Entry Name of Target Chain>


> <UniProt (TrEMBL) Primary ID of Target Chain>


> <UniProt (TrEMBL) Secondary ID(s) of Target Chain>


> <UniProt (TrEMBL) Alternative ID(s) of Target Chain>


$$$$
00291001.cdx
  Mrv0541 07212217012D          

 35 37  0  0  0  0            999 V2000
   -3.2055    0.2063    0.0000 C   0  0  0  0  0  0  0  0  0  0  0  0
   -3.2055   -0.6187    0.0000 C   0  0  0  0  0  0  0  0  0  0  0  0
   -2.4910   -1.0312    0.0000 C   0  0  0  0  0  0  0  0  0  0  0  0
   -1.7766   -0.6187    0.0000 C   0  0  0  0  0  0  0  0  0  0  0  0
   -1.7766    0.2063    0.0000 C   0  0  0  0  0  0  0  0  0  0  0  0
   -2.4910    0.6188    0.0000 C   0  0  0  0  0  0  0  0  0  0  0  0
   -3.9200   -1.0312    0.0000 N   0  0  0  0  0  0  0  0  0  0  0  0
   -4.6344   -0.6187    0.0000 C   0  0  0  0  0  0  0  0  0  0  0  0
   -5.3489   -1.0312    0.0000 C   0  0  0  0  0  0  0  0  0  0  0  0
   -4.6344    0.2063    0.0000 O   0  0  0  0  0  0  0  0  0  0  0  0
   -1.0621   -1.0312    0.0000 S   0  0  0  0  0  0  0  0  0  0  0  0
   -0.3476   -1.4437    0.0000 N   0  0  0  0  0  0  0  0  0  0  0  0
   -0.6496   -0.3168    0.0000 O   0  0  0  0  0  0  0  0  0  0  0  0
   -1.4746   -1.7457    0.0000 O   0  0  0  0  0  0  0  0  0  0  0  0
    0.3669   -1.0312    0.0000 C   0  0  0  0  0  0  0  0  0  0  0  0
    1.0813   -1.4437    0.0000 C   0  0  0  0  0  0  0  0  0  0  0  0
    0.3669   -0.2062    0.0000 C   0  0  0  0  0  0  0  0  0  0  0  0
    1.0813   -0.6187    0.0000 C   0  0  0  0  0  0  0  0  0  0  0  0
   -1.0621    1.4438    0.0000 C   0  0  0  0  0  0  0  0  0  0  0  0
   -1.0621    0.6188    0.0000 C   0  0  0  0  0  0  0  0  0  0  0  0
   -0.2775    0.3638    0.0000 S   0  0  0  0  0  0  0  0  0  0  0  0
    0.2075    1.0313    0.0000 C   0  0  0  0  0  0  0  0  0  0  0  0
   -0.2775    1.6987    0.0000 N   0  0  0  0  0  0  0  0  0  0  0  0
    1.0325    1.0313    0.0000 C   0  0  0  0  0  0  0  0  0  0  0  0
    1.4450    0.3168    0.0000 C   0  0  0  0  0  0  0  0  0  0  0  0
    2.2700    0.3168    0.0000 C   0  0  0  0  0  0  0  0  0  0  0  0
    2.6825    1.0313    0.0000 C   0  0  0  0  0  0  0  0  0  0  0  0
    2.2700    1.7457    0.0000 C   0  0  0  0  0  0  0  0  0  0  0  0
    1.4450    1.7457    0.0000 C   0  0  0  0  0  0  0  0  0  0  0  0
    3.5075    1.0313    0.0000 N   0  0  0  0  0  0  0  0  0  0  0  0
    3.9200    0.3168    0.0000 S   0  0  0  0  0  0  0  0  0  0  0  0
    4.3325   -0.3977    0.0000 O   0  0  0  0  0  0  0  0  0  0  0  0
    4.6344    0.7293    0.0000 N   0  0  0  0  0  0  0  0  0  0  0  0
    3.2055   -0.0957    0.0000 O   0  0  0  0  0  0  0  0  0  0  0  0
    5.3489    0.3168    0.0000 C   0  0  0  0  0  0  0  0  0  0  0  0
  1  2  4  0  0  0  0
  2  3  4  0  0  0  0
  3  4  4  0  0  0  0
  4  5  4  0  0  0  0
  5  6  4  0  0  0  0
  6  1  4  0  0  0  0
  2  7  1  0  0  0  0
  7  8  1  0  0  0  0
  8  9  1  0  0  0  0
  8 10  2  0  0  0  0
  4 11  1  0  0  0  0
 11 12  1  0  0  0  0
 11 13  2  0  0  0  0
 11 14  2  0  0  0  0
 12 15  1  0  0  0  0
 15 16  1  0  0  0  0
 15 17  1  0  0  0  0
 15 18  1  0  0  0  0
  5 20  1  0  0  0  0
 19 20  4  0  0  0  0
 20 21  4  0  0  0  0
 21 22  4  0  0  0  0
 22 23  4  0  0  0  0
 23 19  4  0  0  0  0
 22 24  1  0  0  0  0
 24 25  4  0  0  0  0
 25 26  4  0  0  0  0
 26 27  4  0  0  0  0
 27 28  4  0  0  0  0
 28 29  4  0  0  0  0
 29 24  4  0  0  0  0
 27 30  1  0  0  0  0
 30 31  1  0  0  0  0
 31 32  2  0  0  0  0
 31 33  1  0  0  0  0
 31 34  2  0  0  0  0
 33 35  1  0  0  0  0
M  END
> <From>
www.bindingDB.org

> <BindingDB Reactant_set_id>
1155281

> <Ligand InChI>
InChI=1S/C22H27N5O5S3/c1-14(28)25-17-10-11-18(20(12-17)34(29,30)27-22(2,3)4)19-13-24-21(33-19)15-6-8-16(9-7-15)26-35(31,32)23-5/h6-13,23,26-27H,1-5H3,(H,25,28)

> <Ligand InChI Key>
AWFFJKNDFOCAEH-UHFFFAOYSA-N

> <BindingDB MonomerID>
546432

> <BindingDB Ligand Name>
US11291655, No G9

> <Target Name>
DNA repair protein RAD51 homolog 1

> <Target Source Organism According to Curator or DataSource>
Homo sapiens

> <Ki (nM)>


> <IC50 (nM)>


> <Kd (nM)>


> <EC50 (nM)>
>10000

> <kon (M-1-s-1)>


> <koff (s-1)>


> <pH>


> <Temp C>


> <Curation/DataSource>
US Patent

> <Article DOI>


> <BindingDB Entry DOI>
10.7270/Q2NG4TV0

> <PMID>


> <PubChem AID>
aid1806421

> <Patent Number>
US11291655

> <Authors>
Castro, AC; McComas, CC; Vacca, J

> <Date of publication>
4/5/2022

> <Date in BindingDB>
7/21/2022

> <Institution>
Cyteir Therapeutics, Inc.

> <Link to Ligand in BindingDB>
http://www.bindingdb.org/bind/chemsearch/marvin/MolStructure.jsp?monomerid=546432

> <Link to Ligand-Target Pair in BindingDB>
http://www.bindingdb.org/jsp/dbsearch/PrimarySearch_ki.jsp?energyterm=kJ/mole&tag=pol&polymerid=4676&target=DNA+repair+protein+RAD51+homolog+1&column=ki&startPg=0&Increment=50&submit=Search

> <Link to Ligand-Target Pair in BindingDB>
http://www.bindingdb.org/jsp/dbsearch/PrimarySearch_ki.jsp?energyterm=kJ/mole&tag=r21&monomerid=546432&enzyme=DNA+repair+protein+RAD51+homolog+1&column=ki&startPg=0&Increment=50&submit=Search

> <Ligand HET ID in PDB>


> <PDB ID(s) for Ligand-Target Complex>


> <PubChem CID of Ligand>
137412042

> <PubChem SID of Ligand>
469681128

> <ChEBI ID of Ligand>


> <ChEMBL ID of Ligand>


> <DrugBank ID of Ligand>


> <IUPHAR_GRAC ID of Ligand>


> <KEGG ID of Ligand>


> <ZINC ID of Ligand>


> <Number of Protein Chains in Target (bigger than 1 implies a multichain complex)>
1

> <BindingDB Target Chain Sequence>
MAMQMQLEANADTSVEEESFGPQPISRLEQCGINANDVKKLEEAGFHTVEAVAYAPKKELINIKGISEAKADKILAEAAKLVPMGFTTATEFHQRRSEIIQITTGSKELDKLLQGGIETGSITEMFGEFRTGKTQICHTLAVTCQLPIDRGGGEGKAMYIDTEGTFRPERLLAVAERYGLSGSDVLDNVAYARAFNTDHQTQLLYQASAMMVESRYALLIVDSATALYRTDYSGRGELSARQMHLARFLRMLLRLADEFGVAVVITNQVVAQVDGAAMFAADPKKPIGGNIIAHASTTRLYLRKGRGETRICKIYDSPCLPEAEAMFAINADGVGDAKD

> <PDB ID(s) of Target Chain>
1N0W,5JZC,5NP7,5NWL,8BQ2,8BR2,8BSC

> <UniProt (SwissProt) Recommended Name of Target Chain>
DNA repair protein RAD51 homolog 1

> <UniProt (SwissProt) Entry Name of Target Chain>
RAD51_HUMAN

> <UniProt (SwissProt) Primary ID of Target Chain>
Q06609

> <UniProt (SwissProt) Secondary ID(s) of Target Chain>
B0FXP0 B2R8T6 Q6FHX9 Q6ZNA8 Q9BV60

> <UniProt (SwissProt) Alternative ID(s) of Target Chain>


> <UniProt (TrEMBL) Submitted Name of Target Chain>


> <UniProt (TrEMBL) Entry Name of Target Chain>


> <UniProt (TrEMBL) Primary ID of Target Chain>


> <UniProt (TrEMBL) Secondary ID(s) of Target Chain>


> <UniProt (TrEMBL) Alternative ID(s) of Target Chain>


$$$$
00292001.cdx
  Mrv0541 07212217012D          

 38 40  0  0  0  0            999 V2000
    0.1990    2.0929    0.0000 N   0  0  0  0  0  0  0  0  0  0  0  0
   -0.6260    2.0929    0.0000 C   0  0  0  0  0  0  0  0  0  0  0  0
   -0.8810    1.3082    0.0000 C   0  0  0  0  0  0  0  0  0  0  0  0
   -0.2135    0.8233    0.0000 S   0  0  0  0  0  0  0  0  0  0  0  0
    0.4539    1.3082    0.0000 C   0  0  0  0  0  0  0  0  0  0  0  0
   -1.6779    1.0947    0.0000 C   0  0  0  0  0  0  0  0  0  0  0  0
   -2.2612    1.6781    0.0000 C   0  0  0  0  0  0  0  0  0  0  0  0
   -3.0581    1.4645    0.0000 C   0  0  0  0  0  0  0  0  0  0  0  0
   -3.2716    0.6677    0.0000 C   0  0  0  0  0  0  0  0  0  0  0  0
   -2.6883    0.0843    0.0000 C   0  0  0  0  0  0  0  0  0  0  0  0
   -1.8914    0.2978    0.0000 C   0  0  0  0  0  0  0  0  0  0  0  0
   -4.0685    0.4541    0.0000 N   0  0  0  0  0  0  0  0  0  0  0  0
   -1.3080   -0.2855    0.0000 S   0  0  0  0  0  0  0  0  0  0  0  0
   -1.5215   -1.0824    0.0000 N   0  0  0  0  0  0  0  0  0  0  0  0
   -0.5111   -0.4991    0.0000 O   0  0  0  0  0  0  0  0  0  0  0  0
   -0.7247    0.2978    0.0000 O   0  0  0  0  0  0  0  0  0  0  0  0
   -2.3184   -1.2960    0.0000 C   0  0  0  0  0  0  0  0  0  0  0  0
   -2.5320   -2.0929    0.0000 C   0  0  0  0  0  0  0  0  0  0  0  0
   -2.9018   -0.7126    0.0000 C   0  0  0  0  0  0  0  0  0  0  0  0
   -3.1153   -1.5095    0.0000 C   0  0  0  0  0  0  0  0  0  0  0  0
    1.2508    1.0947    0.0000 C   0  0  0  0  0  0  0  0  0  0  0  0
    1.4643    0.2978    0.0000 C   0  0  0  0  0  0  0  0  0  0  0  0
    2.2612    0.0843    0.0000 C   0  0  0  0  0  0  0  0  0  0  0  0
    2.8446    0.6677    0.0000 C   0  0  0  0  0  0  0  0  0  0  0  0
    2.6311    1.4645    0.0000 C   0  0  0  0  0  0  0  0  0  0  0  0
    1.8342    1.6781    0.0000 C   0  0  0  0  0  0  0  0  0  0  0  0
   -4.6519    1.0375    0.0000 C   0  0  0  0  0  0  0  0  0  0  0  0
    3.6415    0.4541    0.0000 N   0  0  0  0  0  0  0  0  0  0  0  0
    3.8550   -0.3428    0.0000 C   0  0  0  0  0  0  0  0  0  0  0  0
    4.6519   -0.5563    0.0000 O   0  0  0  0  0  0  0  0  0  0  0  0
    3.2716   -0.9261    0.0000 O   0  0  0  0  0  0  0  0  0  0  0  0
    5.2352    0.0271    0.0000 C   0  0  0  0  0  0  0  0  0  0  0  0
    6.0321   -0.1865    0.0000 C   0  0  0  0  0  0  0  0  0  0  0  0
    5.0217    0.8240    0.0000 C   0  0  0  0  0  0  0  0  0  0  0  0
   -5.4488    0.8240    0.0000 C   0  0  0  0  0  0  0  0  0  0  0  0
   -4.4384    1.8344    0.0000 O   0  0  0  0  0  0  0  0  0  0  0  0
   -6.0321    1.4073    0.0000 C   0  0  0  0  0  0  0  0  0  0  0  0
   -5.6623    0.0271    0.0000 C   0  0  0  0  0  0  0  0  0  0  0  0
  1  2  4  0  0  0  0
  2  3  4  0  0  0  0
  3  4  4  0  0  0  0
  4  5  4  0  0  0  0
  5  1  4  0  0  0  0
  3  6  1  0  0  0  0
  6  7  4  0  0  0  0
  7  8  4  0  0  0  0
  8  9  4  0  0  0  0
  9 10  4  0  0  0  0
 10 11  4  0  0  0  0
 11  6  4  0  0  0  0
  9 12  1  0  0  0  0
 12 27  1  0  0  0  0
 11 13  1  0  0  0  0
 13 14  1  0  0  0  0
 13 15  2  0  0  0  0
 16 13  2  0  0  0  0
 14 17  1  0  0  0  0
 17 18  1  0  0  0  0
 17 19  1  0  0  0  0
 17 20  1  0  0  0  0
  5 21  1  0  0  0  0
 21 22  4  0  0  0  0
 22 23  4  0  0  0  0
 23 24  4  0  0  0  0
 24 25  4  0  0  0  0
 25 26  4  0  0  0  0
 26 21  4  0  0  0  0
 24 28  1  0  0  0  0
 28 29  1  0  0  0  0
 29 30  1  0  0  0  0
 29 31  2  0  0  0  0
 30 32  1  0  0  0  0
 32 33  1  0  0  0  0
 32 34  1  0  0  0  0
 27 35  1  0  0  0  0
 27 36  2  0  0  0  0
 35 37  1  0  0  0  0
 35 38  1  0  0  0  0
M  END
> <From>
www.bindingDB.org

> <BindingDB Reactant_set_id>
1155282

> <Ligand InChI>
InChI=1S/C27H34N4O5S2/c1-16(2)24(32)29-20-12-13-21(23(14-20)38(34,35)31-27(5,6)7)22-15-28-25(37-22)18-8-10-19(11-9-18)30-26(33)36-17(3)4/h8-17,31H,1-7H3,(H,29,32)(H,30,33)

> <Ligand InChI Key>
RRWCVRHNQDBCJT-UHFFFAOYSA-N

> <BindingDB MonomerID>
546433

> <BindingDB Ligand Name>
US11291655, No H10

> <Target Name>
DNA repair protein RAD51 homolog 1

> <Target Source Organism According to Curator or DataSource>
Homo sapiens

> <Ki (nM)>


> <IC50 (nM)>


> <Kd (nM)>


> <EC50 (nM)>
<1000

> <kon (M-1-s-1)>


> <koff (s-1)>


> <pH>


> <Temp C>


> <Curation/DataSource>
US Patent

> <Article DOI>


> <BindingDB Entry DOI>
10.7270/Q2NG4TV0

> <PMID>


> <PubChem AID>
aid1806421

> <Patent Number>
US11291655

> <Authors>
Castro, AC; McComas, CC; Vacca, J

> <Date of publication>
4/5/2022

> <Date in BindingDB>
7/21/2022

> <Institution>
Cyteir Therapeutics, Inc.

> <Link to Ligand in BindingDB>
http://www.bindingdb.org/bind/chemsearch/marvin/MolStructure.jsp?monomerid=546433

> <Link to Ligand-Target Pair in BindingDB>
http://www.bindingdb.org/jsp/dbsearch/PrimarySearch_ki.jsp?energyterm=kJ/mole&tag=pol&polymerid=4676&target=DNA+repair+protein+RAD51+homolog+1&column=ki&startPg=0&Increment=50&submit=Search

> <Link to Ligand-Target Pair in BindingDB>
http://www.bindingdb.org/jsp/dbsearch/PrimarySearch_ki.jsp?energyterm=kJ/mole&tag=r21&monomerid=546433&enzyme=DNA+repair+protein+RAD51+homolog+1&column=ki&startPg=0&Increment=50&submit=Search

> <Ligand HET ID in PDB>


> <PDB ID(s) for Ligand-Target Complex>


> <PubChem CID of Ligand>
137411855

> <PubChem SID of Ligand>
469681129

> <ChEBI ID of Ligand>


> <ChEMBL ID of Ligand>


> <DrugBank ID of Ligand>


> <IUPHAR_GRAC ID of Ligand>


> <KEGG ID of Ligand>


> <ZINC ID of Ligand>


> <Number of Protein Chains in Target (bigger than 1 implies a multichain complex)>
1

> <BindingDB Target Chain Sequence>
MAMQMQLEANADTSVEEESFGPQPISRLEQCGINANDVKKLEEAGFHTVEAVAYAPKKELINIKGISEAKADKILAEAAKLVPMGFTTATEFHQRRSEIIQITTGSKELDKLLQGGIETGSITEMFGEFRTGKTQICHTLAVTCQLPIDRGGGEGKAMYIDTEGTFRPERLLAVAERYGLSGSDVLDNVAYARAFNTDHQTQLLYQASAMMVESRYALLIVDSATALYRTDYSGRGELSARQMHLARFLRMLLRLADEFGVAVVITNQVVAQVDGAAMFAADPKKPIGGNIIAHASTTRLYLRKGRGETRICKIYDSPCLPEAEAMFAINADGVGDAKD

> <PDB ID(s) of Target Chain>
1N0W,5JZC,5NP7,5NWL,8BQ2,8BR2,8BSC

> <UniProt (SwissProt) Recommended Name of Target Chain>
DNA repair protein RAD51 homolog 1

> <UniProt (SwissProt) Entry Name of Target Chain>
RAD51_HUMAN

> <UniProt (SwissProt) Primary ID of Target Chain>
Q06609

> <UniProt (SwissProt) Secondary ID(s) of Target Chain>
B0FXP0 B2R8T6 Q6FHX9 Q6ZNA8 Q9BV60

> <UniProt (SwissProt) Alternative ID(s) of Target Chain>


> <UniProt (TrEMBL) Submitted Name of Target Chain>


> <UniProt (TrEMBL) Entry Name of Target Chain>


> <UniProt (TrEMBL) Primary ID of Target Chain>


> <UniProt (TrEMBL) Secondary ID(s) of Target Chain>


> <UniProt (TrEMBL) Alternative ID(s) of Target Chain>


$$$$
00293001.cdx
  Mrv0541 07212217012D          

 37 39  0  0  0  0            999 V2000
   -0.0684    2.0929    0.0000 N   0  0  0  0  0  0  0  0  0  0  0  0
   -0.8934    2.0929    0.0000 C   0  0  0  0  0  0  0  0  0  0  0  0
   -1.1483    1.3082    0.0000 C   0  0  0  0  0  0  0  0  0  0  0  0
   -0.4809    0.8233    0.0000 S   0  0  0  0  0  0  0  0  0  0  0  0
    0.1866    1.3082    0.0000 C   0  0  0  0  0  0  0  0  0  0  0  0
   -1.9452    1.0947    0.0000 C   0  0  0  0  0  0  0  0  0  0  0  0
   -2.5286    1.6781    0.0000 C   0  0  0  0  0  0  0  0  0  0  0  0
   -3.3254    1.4645    0.0000 C   0  0  0  0  0  0  0  0  0  0  0  0
   -3.5390    0.6677    0.0000 C   0  0  0  0  0  0  0  0  0  0  0  0
   -2.9556    0.0843    0.0000 C   0  0  0  0  0  0  0  0  0  0  0  0
   -2.1587    0.2978    0.0000 C   0  0  0  0  0  0  0  0  0  0  0  0
   -4.3359    0.4541    0.0000 N   0  0  0  0  0  0  0  0  0  0  0  0
   -1.5754   -0.2855    0.0000 S   0  0  0  0  0  0  0  0  0  0  0  0
   -1.7889   -1.0824    0.0000 N   0  0  0  0  0  0  0  0  0  0  0  0
   -0.7785   -0.4991    0.0000 O   0  0  0  0  0  0  0  0  0  0  0  0
   -0.9920    0.2978    0.0000 O   0  0  0  0  0  0  0  0  0  0  0  0
   -2.5858   -1.2960    0.0000 C   0  0  0  0  0  0  0  0  0  0  0  0
   -2.7993   -2.0929    0.0000 C   0  0  0  0  0  0  0  0  0  0  0  0
   -3.1691   -0.7126    0.0000 C   0  0  0  0  0  0  0  0  0  0  0  0
   -3.3827   -1.5095    0.0000 C   0  0  0  0  0  0  0  0  0  0  0  0
    0.9835    1.0947    0.0000 C   0  0  0  0  0  0  0  0  0  0  0  0
    1.1970    0.2978    0.0000 C   0  0  0  0  0  0  0  0  0  0  0  0
    1.9939    0.0843    0.0000 C   0  0  0  0  0  0  0  0  0  0  0  0
    2.5772    0.6677    0.0000 C   0  0  0  0  0  0  0  0  0  0  0  0
    2.3637    1.4645    0.0000 C   0  0  0  0  0  0  0  0  0  0  0  0
    1.5668    1.6781    0.0000 C   0  0  0  0  0  0  0  0  0  0  0  0
    3.3741    0.4541    0.0000 N   0  0  0  0  0  0  0  0  0  0  0  0
    3.5877   -0.3428    0.0000 C   0  0  0  0  0  0  0  0  0  0  0  0
    4.3845   -0.5563    0.0000 O   0  0  0  0  0  0  0  0  0  0  0  0
    3.0043   -0.9261    0.0000 O   0  0  0  0  0  0  0  0  0  0  0  0
    4.9679    0.0271    0.0000 C   0  0  0  0  0  0  0  0  0  0  0  0
    5.7648   -0.1865    0.0000 C   0  0  0  0  0  0  0  0  0  0  0  0
    4.7544    0.8240    0.0000 C   0  0  0  0  0  0  0  0  0  0  0  0
   -5.0503    0.8666    0.0000 S   0  0  0  0  0  0  0  0  0  0  0  0
   -5.7648    0.4541    0.0000 C   0  0  0  0  0  0  0  0  0  0  0  0
   -4.6378    1.5811    0.0000 O   0  0  0  0  0  0  0  0  0  0  0  0
   -5.4628    1.5811    0.0000 O   0  0  0  0  0  0  0  0  0  0  0  0
  1  2  4  0  0  0  0
  2  3  4  0  0  0  0
  3  4  4  0  0  0  0
  4  5  4  0  0  0  0
  5  1  4  0  0  0  0
  3  6  1  0  0  0  0
  6  7  4  0  0  0  0
  7  8  4  0  0  0  0
  8  9  4  0  0  0  0
  9 10  4  0  0  0  0
 10 11  4  0  0  0  0
 11  6  4  0  0  0  0
  9 12  1  0  0  0  0
 11 13  1  0  0  0  0
 13 14  1  0  0  0  0
 13 15  2  0  0  0  0
 16 13  2  0  0  0  0
 14 17  1  0  0  0  0
 17 18  1  0  0  0  0
 17 19  1  0  0  0  0
 17 20  1  0  0  0  0
  5 21  1  0  0  0  0
 21 22  4  0  0  0  0
 22 23  4  0  0  0  0
 23 24  4  0  0  0  0
 24 25  4  0  0  0  0
 25 26  4  0  0  0  0
 26 21  4  0  0  0  0
 24 27  1  0  0  0  0
 27 28  1  0  0  0  0
 28 29  1  0  0  0  0
 28 30  2  0  0  0  0
 29 31  1  0  0  0  0
 31 32  1  0  0  0  0
 31 33  1  0  0  0  0
 12 34  1  0  0  0  0
 34 35  1  0  0  0  0
 34 36  2  0  0  0  0
 37 34  2  0  0  0  0
M  END
> <From>
www.bindingDB.org

> <BindingDB Reactant_set_id>
1155283

> <Ligand InChI>
InChI=1S/C24H30N4O6S3/c1-15(2)34-23(29)26-17-9-7-16(8-10-17)22-25-14-20(35-22)19-12-11-18(27-36(6,30)31)13-21(19)37(32,33)28-24(3,4)5/h7-15,27-28H,1-6H3,(H,26,29)

> <Ligand InChI Key>
RKKCTTVOJXAJSA-UHFFFAOYSA-N

> <BindingDB MonomerID>
546434

> <BindingDB Ligand Name>
US11291655, No H11

> <Target Name>
DNA repair protein RAD51 homolog 1

> <Target Source Organism According to Curator or DataSource>
Homo sapiens

> <Ki (nM)>


> <IC50 (nM)>


> <Kd (nM)>


> <EC50 (nM)>
>10000

> <kon (M-1-s-1)>


> <koff (s-1)>


> <pH>


> <Temp C>


> <Curation/DataSource>
US Patent

> <Article DOI>


> <BindingDB Entry DOI>
10.7270/Q2NG4TV0

> <PMID>


> <PubChem AID>
aid1806421

> <Patent Number>
US11291655

> <Authors>
Castro, AC; McComas, CC; Vacca, J

> <Date of publication>
4/5/2022

> <Date in BindingDB>
7/21/2022

> <Institution>
Cyteir Therapeutics, Inc.

> <Link to Ligand in BindingDB>
http://www.bindingdb.org/bind/chemsearch/marvin/MolStructure.jsp?monomerid=546434

> <Link to Ligand-Target Pair in BindingDB>
http://www.bindingdb.org/jsp/dbsearch/PrimarySearch_ki.jsp?energyterm=kJ/mole&tag=pol&polymerid=4676&target=DNA+repair+protein+RAD51+homolog+1&column=ki&startPg=0&Increment=50&submit=Search

> <Link to Ligand-Target Pair in BindingDB>
http://www.bindingdb.org/jsp/dbsearch/PrimarySearch_ki.jsp?energyterm=kJ/mole&tag=r21&monomerid=546434&enzyme=DNA+repair+protein+RAD51+homolog+1&column=ki&startPg=0&Increment=50&submit=Search

> <Ligand HET ID in PDB>


> <PDB ID(s) for Ligand-Target Complex>


> <PubChem CID of Ligand>
137412043

> <PubChem SID of Ligand>
469681130

> <ChEBI ID of Ligand>


> <ChEMBL ID of Ligand>


> <DrugBank ID of Ligand>


> <IUPHAR_GRAC ID of Ligand>


> <KEGG ID of Ligand>


> <ZINC ID of Ligand>


> <Number of Protein Chains in Target (bigger than 1 implies a multichain complex)>
1

> <BindingDB Target Chain Sequence>
MAMQMQLEANADTSVEEESFGPQPISRLEQCGINANDVKKLEEAGFHTVEAVAYAPKKELINIKGISEAKADKILAEAAKLVPMGFTTATEFHQRRSEIIQITTGSKELDKLLQGGIETGSITEMFGEFRTGKTQICHTLAVTCQLPIDRGGGEGKAMYIDTEGTFRPERLLAVAERYGLSGSDVLDNVAYARAFNTDHQTQLLYQASAMMVESRYALLIVDSATALYRTDYSGRGELSARQMHLARFLRMLLRLADEFGVAVVITNQVVAQVDGAAMFAADPKKPIGGNIIAHASTTRLYLRKGRGETRICKIYDSPCLPEAEAMFAINADGVGDAKD

> <PDB ID(s) of Target Chain>
1N0W,5JZC,5NP7,5NWL,8BQ2,8BR2,8BSC

> <UniProt (SwissProt) Recommended Name of Target Chain>
DNA repair protein RAD51 homolog 1

> <UniProt (SwissProt) Entry Name of Target Chain>
RAD51_HUMAN

> <UniProt (SwissProt) Primary ID of Target Chain>
Q06609

> <UniProt (SwissProt) Secondary ID(s) of Target Chain>
B0FXP0 B2R8T6 Q6FHX9 Q6ZNA8 Q9BV60

> <UniProt (SwissProt) Alternative ID(s) of Target Chain>


> <UniProt (TrEMBL) Submitted Name of Target Chain>


> <UniProt (TrEMBL) Entry Name of Target Chain>


> <UniProt (TrEMBL) Primary ID of Target Chain>


> <UniProt (TrEMBL) Secondary ID(s) of Target Chain>


> <UniProt (TrEMBL) Alternative ID(s) of Target Chain>


$$$$
00294001.cdx
  Mrv0541 07212217012D          

 38 41  0  0  0  0            999 V2000
    0.3057    1.6658    0.0000 N   0  0  0  0  0  0  0  0  0  0  0  0
   -0.5193    1.6658    0.0000 C   0  0  0  0  0  0  0  0  0  0  0  0
   -0.7742    0.8812    0.0000 C   0  0  0  0  0  0  0  0  0  0  0  0
   -0.1068    0.3963    0.0000 S   0  0  0  0  0  0  0  0  0  0  0  0
    0.5607    0.8812    0.0000 C   0  0  0  0  0  0  0  0  0  0  0  0
   -1.5711    0.6677    0.0000 C   0  0  0  0  0  0  0  0  0  0  0  0
   -2.1545    1.2510    0.0000 C   0  0  0  0  0  0  0  0  0  0  0  0
   -2.9513    1.0375    0.0000 C   0  0  0  0  0  0  0  0  0  0  0  0
   -3.1649    0.2406    0.0000 C   0  0  0  0  0  0  0  0  0  0  0  0
   -2.5815   -0.3428    0.0000 C   0  0  0  0  0  0  0  0  0  0  0  0
   -1.7846   -0.1292    0.0000 C   0  0  0  0  0  0  0  0  0  0  0  0
   -3.9618    0.0271    0.0000 N   0  0  0  0  0  0  0  0  0  0  0  0
    1.3576    0.6677    0.0000 C   0  0  0  0  0  0  0  0  0  0  0  0
    1.5711   -0.1292    0.0000 C   0  0  0  0  0  0  0  0  0  0  0  0
    2.3680   -0.3428    0.0000 C   0  0  0  0  0  0  0  0  0  0  0  0
    2.9513    0.2406    0.0000 C   0  0  0  0  0  0  0  0  0  0  0  0
    2.7378    1.0375    0.0000 C   0  0  0  0  0  0  0  0  0  0  0  0
    1.9409    1.2510    0.0000 C   0  0  0  0  0  0  0  0  0  0  0  0
   -4.5451    0.6104    0.0000 C   0  0  0  0  0  0  0  0  0  0  0  0
    3.7482    0.0271    0.0000 N   0  0  0  0  0  0  0  0  0  0  0  0
    3.9618   -0.7698    0.0000 C   0  0  0  0  0  0  0  0  0  0  0  0
    4.7586   -0.9833    0.0000 O   0  0  0  0  0  0  0  0  0  0  0  0
    3.3784   -1.3532    0.0000 O   0  0  0  0  0  0  0  0  0  0  0  0
    5.3420   -0.4000    0.0000 C   0  0  0  0  0  0  0  0  0  0  0  0
    6.1389   -0.6135    0.0000 C   0  0  0  0  0  0  0  0  0  0  0  0
    5.1285    0.3969    0.0000 C   0  0  0  0  0  0  0  0  0  0  0  0
   -5.3420    0.3969    0.0000 C   0  0  0  0  0  0  0  0  0  0  0  0
   -4.3316    1.4073    0.0000 O   0  0  0  0  0  0  0  0  0  0  0  0
   -6.1389    0.6104    0.0000 C   0  0  0  0  0  0  0  0  0  0  0  0
   -5.9254   -0.1865    0.0000 C   0  0  0  0  0  0  0  0  0  0  0  0
   -1.2013   -0.7126    0.0000 S   0  0  0  0  0  0  0  0  0  0  0  0
   -0.6179   -1.2960    0.0000 N   0  0  0  0  0  0  0  0  0  0  0  0
   -0.6179   -0.1292    0.0000 O   0  0  0  0  0  0  0  0  0  0  0  0
   -1.7846   -1.2960    0.0000 O   0  0  0  0  0  0  0  0  0  0  0  0
    0.1790   -1.0824    0.0000 C   0  0  0  0  0  0  0  0  0  0  0  0
    0.7624   -1.6658    0.0000 C   0  0  0  0  0  0  0  0  0  0  0  0
    0.3925   -0.2855    0.0000 C   0  0  0  0  0  0  0  0  0  0  0  0
    0.9759   -0.8689    0.0000 C   0  0  0  0  0  0  0  0  0  0  0  0
  1  2  4  0  0  0  0
  2  3  4  0  0  0  0
  3  4  4  0  0  0  0
  4  5  4  0  0  0  0
  5  1  4  0  0  0  0
  3  6  1  0  0  0  0
  6  7  4  0  0  0  0
  7  8  4  0  0  0  0
  8  9  4  0  0  0  0
  9 10  4  0  0  0  0
 10 11  4  0  0  0  0
 11  6  4  0  0  0  0
  9 12  1  0  0  0  0
 12 19  1  0  0  0  0
  5 13  1  0  0  0  0
 13 14  4  0  0  0  0
 14 15  4  0  0  0  0
 15 16  4  0  0  0  0
 16 17  4  0  0  0  0
 17 18  4  0  0  0  0
 18 13  4  0  0  0  0
 16 20  1  0  0  0  0
 20 21  1  0  0  0  0
 21 22  1  0  0  0  0
 21 23  2  0  0  0  0
 22 24  1  0  0  0  0
 24 25  1  0  0  0  0
 24 26  1  0  0  0  0
 19 27  1  0  0  0  0
 19 28  2  0  0  0  0
 27 29  1  0  0  0  0
 29 30  1  0  0  0  0
 30 27  1  0  0  0  0
 11 31  1  0  0  0  0
 31 32  1  0  0  0  0
 31 33  2  0  0  0  0
 31 34  2  0  0  0  0
 32 35  1  0  0  0  0
 35 36  1  0  0  0  0
 35 37  1  0  0  0  0
 35 38  1  0  0  0  0
M  END
> <From>
www.bindingDB.org

> <BindingDB Reactant_set_id>
1155284

> <Ligand InChI>
InChI=1S/C27H32N4O5S2/c1-16(2)36-26(33)30-19-10-8-18(9-11-19)25-28-15-22(37-25)21-13-12-20(29-24(32)17-6-7-17)14-23(21)38(34,35)31-27(3,4)5/h8-17,31H,6-7H2,1-5H3,(H,29,32)(H,30,33)

> <Ligand InChI Key>
BHZPUNUQJBGLDU-UHFFFAOYSA-N

> <BindingDB MonomerID>
546435

> <BindingDB Ligand Name>
US11291655, No H3

> <Target Name>
DNA repair protein RAD51 homolog 1

> <Target Source Organism According to Curator or DataSource>
Homo sapiens

> <Ki (nM)>


> <IC50 (nM)>


> <Kd (nM)>


> <EC50 (nM)>
<5000

> <kon (M-1-s-1)>


> <koff (s-1)>


> <pH>


> <Temp C>


> <Curation/DataSource>
US Patent

> <Article DOI>


> <BindingDB Entry DOI>
10.7270/Q2NG4TV0

> <PMID>


> <PubChem AID>
aid1806421

> <Patent Number>
US11291655

> <Authors>
Castro, AC; McComas, CC; Vacca, J

> <Date of publication>
4/5/2022

> <Date in BindingDB>
7/21/2022

> <Institution>
Cyteir Therapeutics, Inc.

> <Link to Ligand in BindingDB>
http://www.bindingdb.org/bind/chemsearch/marvin/MolStructure.jsp?monomerid=546435

> <Link to Ligand-Target Pair in BindingDB>
http://www.bindingdb.org/jsp/dbsearch/PrimarySearch_ki.jsp?energyterm=kJ/mole&tag=pol&polymerid=4676&target=DNA+repair+protein+RAD51+homolog+1&column=ki&startPg=0&Increment=50&submit=Search

> <Link to Ligand-Target Pair in BindingDB>
http://www.bindingdb.org/jsp/dbsearch/PrimarySearch_ki.jsp?energyterm=kJ/mole&tag=r21&monomerid=546435&enzyme=DNA+repair+protein+RAD51+homolog+1&column=ki&startPg=0&Increment=50&submit=Search

> <Ligand HET ID in PDB>


> <PDB ID(s) for Ligand-Target Complex>


> <PubChem CID of Ligand>
137411847

> <PubChem SID of Ligand>
469681131

> <ChEBI ID of Ligand>


> <ChEMBL ID of Ligand>


> <DrugBank ID of Ligand>


> <IUPHAR_GRAC ID of Ligand>


> <KEGG ID of Ligand>


> <ZINC ID of Ligand>


> <Number of Protein Chains in Target (bigger than 1 implies a multichain complex)>
1

> <BindingDB Target Chain Sequence>
MAMQMQLEANADTSVEEESFGPQPISRLEQCGINANDVKKLEEAGFHTVEAVAYAPKKELINIKGISEAKADKILAEAAKLVPMGFTTATEFHQRRSEIIQITTGSKELDKLLQGGIETGSITEMFGEFRTGKTQICHTLAVTCQLPIDRGGGEGKAMYIDTEGTFRPERLLAVAERYGLSGSDVLDNVAYARAFNTDHQTQLLYQASAMMVESRYALLIVDSATALYRTDYSGRGELSARQMHLARFLRMLLRLADEFGVAVVITNQVVAQVDGAAMFAADPKKPIGGNIIAHASTTRLYLRKGRGETRICKIYDSPCLPEAEAMFAINADGVGDAKD

> <PDB ID(s) of Target Chain>
1N0W,5JZC,5NP7,5NWL,8BQ2,8BR2,8BSC

> <UniProt (SwissProt) Recommended Name of Target Chain>
DNA repair protein RAD51 homolog 1

> <UniProt (SwissProt) Entry Name of Target Chain>
RAD51_HUMAN

> <UniProt (SwissProt) Primary ID of Target Chain>
Q06609

> <UniProt (SwissProt) Secondary ID(s) of Target Chain>
B0FXP0 B2R8T6 Q6FHX9 Q6ZNA8 Q9BV60

> <UniProt (SwissProt) Alternative ID(s) of Target Chain>


> <UniProt (TrEMBL) Submitted Name of Target Chain>


> <UniProt (TrEMBL) Entry Name of Target Chain>


> <UniProt (TrEMBL) Primary ID of Target Chain>


> <UniProt (TrEMBL) Secondary ID(s) of Target Chain>


> <UniProt (TrEMBL) Alternative ID(s) of Target Chain>


$$$$
00295001.cdx
  Mrv0541 07212217012D          

 37 39  0  0  0  0            999 V2000
    0.1990    2.0929    0.0000 N   0  0  0  0  0  0  0  0  0  0  0  0
   -0.6260    2.0929    0.0000 C   0  0  0  0  0  0  0  0  0  0  0  0
   -0.8810    1.3082    0.0000 C   0  0  0  0  0  0  0  0  0  0  0  0
   -0.2135    0.8233    0.0000 S   0  0  0  0  0  0  0  0  0  0  0  0
    0.4539    1.3082    0.0000 C   0  0  0  0  0  0  0  0  0  0  0  0
   -1.6779    1.0947    0.0000 C   0  0  0  0  0  0  0  0  0  0  0  0
   -2.2612    1.6781    0.0000 C   0  0  0  0  0  0  0  0  0  0  0  0
   -3.0581    1.4645    0.0000 C   0  0  0  0  0  0  0  0  0  0  0  0
   -3.2716    0.6677    0.0000 C   0  0  0  0  0  0  0  0  0  0  0  0
   -2.6883    0.0843    0.0000 C   0  0  0  0  0  0  0  0  0  0  0  0
   -1.8914    0.2978    0.0000 C   0  0  0  0  0  0  0  0  0  0  0  0
   -4.0685    0.4541    0.0000 N   0  0  0  0  0  0  0  0  0  0  0  0
   -1.3080   -0.2855    0.0000 S   0  0  0  0  0  0  0  0  0  0  0  0
   -1.5215   -1.0824    0.0000 N   0  0  0  0  0  0  0  0  0  0  0  0
   -0.5111   -0.4991    0.0000 O   0  0  0  0  0  0  0  0  0  0  0  0
   -0.7247    0.2978    0.0000 O   0  0  0  0  0  0  0  0  0  0  0  0
   -2.3184   -1.2960    0.0000 C   0  0  0  0  0  0  0  0  0  0  0  0
   -2.5320   -2.0929    0.0000 C   0  0  0  0  0  0  0  0  0  0  0  0
   -2.9018   -0.7126    0.0000 C   0  0  0  0  0  0  0  0  0  0  0  0
   -3.1153   -1.5095    0.0000 C   0  0  0  0  0  0  0  0  0  0  0  0
    1.2508    1.0947    0.0000 C   0  0  0  0  0  0  0  0  0  0  0  0
    1.4643    0.2978    0.0000 C   0  0  0  0  0  0  0  0  0  0  0  0
    2.2612    0.0843    0.0000 C   0  0  0  0  0  0  0  0  0  0  0  0
    2.8446    0.6677    0.0000 C   0  0  0  0  0  0  0  0  0  0  0  0
    2.6311    1.4645    0.0000 C   0  0  0  0  0  0  0  0  0  0  0  0
    1.8342    1.6781    0.0000 C   0  0  0  0  0  0  0  0  0  0  0  0
   -4.6519    1.0375    0.0000 C   0  0  0  0  0  0  0  0  0  0  0  0
    3.6415    0.4541    0.0000 N   0  0  0  0  0  0  0  0  0  0  0  0
    3.8550   -0.3428    0.0000 C   0  0  0  0  0  0  0  0  0  0  0  0
    4.6519   -0.5563    0.0000 O   0  0  0  0  0  0  0  0  0  0  0  0
    3.2716   -0.9261    0.0000 O   0  0  0  0  0  0  0  0  0  0  0  0
    5.2352    0.0271    0.0000 C   0  0  0  0  0  0  0  0  0  0  0  0
    6.0321   -0.1865    0.0000 C   0  0  0  0  0  0  0  0  0  0  0  0
    5.0217    0.8240    0.0000 C   0  0  0  0  0  0  0  0  0  0  0  0
   -5.4488    0.8240    0.0000 C   0  0  0  0  0  0  0  0  0  0  0  0
   -4.4384    1.8344    0.0000 O   0  0  0  0  0  0  0  0  0  0  0  0
   -6.0321    1.4073    0.0000 C   0  0  0  0  0  0  0  0  0  0  0  0
  1  2  4  0  0  0  0
  2  3  4  0  0  0  0
  3  4  4  0  0  0  0
  4  5  4  0  0  0  0
  5  1  4  0  0  0  0
  3  6  1  0  0  0  0
  6  7  4  0  0  0  0
  7  8  4  0  0  0  0
  8  9  4  0  0  0  0
  9 10  4  0  0  0  0
 10 11  4  0  0  0  0
 11  6  4  0  0  0  0
  9 12  1  0  0  0  0
 12 27  1  0  0  0  0
 11 13  1  0  0  0  0
 13 14  1  0  0  0  0
 13 15  2  0  0  0  0
 16 13  2  0  0  0  0
 14 17  1  0  0  0  0
 17 18  1  0  0  0  0
 17 19  1  0  0  0  0
 17 20  1  0  0  0  0
  5 21  1  0  0  0  0
 21 22  4  0  0  0  0
 22 23  4  0  0  0  0
 23 24  4  0  0  0  0
 24 25  4  0  0  0  0
 25 26  4  0  0  0  0
 26 21  4  0  0  0  0
 24 28  1  0  0  0  0
 28 29  1  0  0  0  0
 29 30  1  0  0  0  0
 29 31  2  0  0  0  0
 30 32  1  0  0  0  0
 32 33  1  0  0  0  0
 32 34  1  0  0  0  0
 27 35  1  0  0  0  0
 27 36  2  0  0  0  0
 35 37  1  0  0  0  0
M  END
> <From>
www.bindingDB.org

> <BindingDB Reactant_set_id>
1155285

> <Ligand InChI>
InChI=1S/C26H32N4O5S2/c1-7-23(31)28-19-12-13-20(22(14-19)37(33,34)30-26(4,5)6)21-15-27-24(36-21)17-8-10-18(11-9-17)29-25(32)35-16(2)3/h8-16,30H,7H2,1-6H3,(H,28,31)(H,29,32)

> <Ligand InChI Key>
SKIWBXWAPUUNMZ-UHFFFAOYSA-N

> <BindingDB MonomerID>
546436

> <BindingDB Ligand Name>
US11291655, No H4

> <Target Name>
DNA repair protein RAD51 homolog 1

> <Target Source Organism According to Curator or DataSource>
Homo sapiens

> <Ki (nM)>


> <IC50 (nM)>


> <Kd (nM)>


> <EC50 (nM)>
<1000

> <kon (M-1-s-1)>


> <koff (s-1)>


> <pH>


> <Temp C>


> <Curation/DataSource>
US Patent

> <Article DOI>


> <BindingDB Entry DOI>
10.7270/Q2NG4TV0

> <PMID>


> <PubChem AID>
aid1806421

> <Patent Number>
US11291655

> <Authors>
Castro, AC; McComas, CC; Vacca, J

> <Date of publication>
4/5/2022

> <Date in BindingDB>
7/21/2022

> <Institution>
Cyteir Therapeutics, Inc.

> <Link to Ligand in BindingDB>
http://www.bindingdb.org/bind/chemsearch/marvin/MolStructure.jsp?monomerid=546436

> <Link to Ligand-Target Pair in BindingDB>
http://www.bindingdb.org/jsp/dbsearch/PrimarySearch_ki.jsp?energyterm=kJ/mole&tag=pol&polymerid=4676&target=DNA+repair+protein+RAD51+homolog+1&column=ki&startPg=0&Increment=50&submit=Search

> <Link to Ligand-Target Pair in BindingDB>
http://www.bindingdb.org/jsp/dbsearch/PrimarySearch_ki.jsp?energyterm=kJ/mole&tag=r21&monomerid=546436&enzyme=DNA+repair+protein+RAD51+homolog+1&column=ki&startPg=0&Increment=50&submit=Search

> <Ligand HET ID in PDB>


> <PDB ID(s) for Ligand-Target Complex>


> <PubChem CID of Ligand>
137412044

> <PubChem SID of Ligand>
469681132

> <ChEBI ID of Ligand>


> <ChEMBL ID of Ligand>


> <DrugBank ID of Ligand>


> <IUPHAR_GRAC ID of Ligand>


> <KEGG ID of Ligand>


> <ZINC ID of Ligand>


> <Number of Protein Chains in Target (bigger than 1 implies a multichain complex)>
1

> <BindingDB Target Chain Sequence>
MAMQMQLEANADTSVEEESFGPQPISRLEQCGINANDVKKLEEAGFHTVEAVAYAPKKELINIKGISEAKADKILAEAAKLVPMGFTTATEFHQRRSEIIQITTGSKELDKLLQGGIETGSITEMFGEFRTGKTQICHTLAVTCQLPIDRGGGEGKAMYIDTEGTFRPERLLAVAERYGLSGSDVLDNVAYARAFNTDHQTQLLYQASAMMVESRYALLIVDSATALYRTDYSGRGELSARQMHLARFLRMLLRLADEFGVAVVITNQVVAQVDGAAMFAADPKKPIGGNIIAHASTTRLYLRKGRGETRICKIYDSPCLPEAEAMFAINADGVGDAKD

> <PDB ID(s) of Target Chain>
1N0W,5JZC,5NP7,5NWL,8BQ2,8BR2,8BSC

> <UniProt (SwissProt) Recommended Name of Target Chain>
DNA repair protein RAD51 homolog 1

> <UniProt (SwissProt) Entry Name of Target Chain>
RAD51_HUMAN

> <UniProt (SwissProt) Primary ID of Target Chain>
Q06609

> <UniProt (SwissProt) Secondary ID(s) of Target Chain>
B0FXP0 B2R8T6 Q6FHX9 Q6ZNA8 Q9BV60

> <UniProt (SwissProt) Alternative ID(s) of Target Chain>


> <UniProt (TrEMBL) Submitted Name of Target Chain>


> <UniProt (TrEMBL) Entry Name of Target Chain>


> <UniProt (TrEMBL) Primary ID of Target Chain>


> <UniProt (TrEMBL) Secondary ID(s) of Target Chain>


> <UniProt (TrEMBL) Alternative ID(s) of Target Chain>


$$$$
00296001.cdx
  Mrv0541 07212217012D          

 43 46  0  0  0  0            999 V2000
    1.3943    2.0929    0.0000 N   0  0  0  0  0  0  0  0  0  0  0  0
    0.5693    2.0929    0.0000 C   0  0  0  0  0  0  0  0  0  0  0  0
    0.3144    1.3082    0.0000 C   0  0  0  0  0  0  0  0  0  0  0  0
    0.9818    0.8233    0.0000 S   0  0  0  0  0  0  0  0  0  0  0  0
    1.6492    1.3082    0.0000 C   0  0  0  0  0  0  0  0  0  0  0  0
   -0.4825    1.0947    0.0000 C   0  0  0  0  0  0  0  0  0  0  0  0
   -1.0659    1.6781    0.0000 C   0  0  0  0  0  0  0  0  0  0  0  0
   -1.8628    1.4645    0.0000 C   0  0  0  0  0  0  0  0  0  0  0  0
   -2.0763    0.6677    0.0000 C   0  0  0  0  0  0  0  0  0  0  0  0
   -1.4929    0.0843    0.0000 C   0  0  0  0  0  0  0  0  0  0  0  0
   -0.6960    0.2978    0.0000 C   0  0  0  0  0  0  0  0  0  0  0  0
   -2.8732    0.4541    0.0000 N   0  0  0  0  0  0  0  0  0  0  0  0
   -0.1127   -0.2855    0.0000 S   0  0  0  0  0  0  0  0  0  0  0  0
   -0.3262   -1.0824    0.0000 N   0  0  0  0  0  0  0  0  0  0  0  0
    0.6842   -0.4991    0.0000 O   0  0  0  0  0  0  0  0  0  0  0  0
    0.4707    0.2978    0.0000 O   0  0  0  0  0  0  0  0  0  0  0  0
   -1.1231   -1.2960    0.0000 C   0  0  0  0  0  0  0  0  0  0  0  0
   -1.3366   -2.0929    0.0000 C   0  0  0  0  0  0  0  0  0  0  0  0
   -1.7065   -0.7126    0.0000 C   0  0  0  0  0  0  0  0  0  0  0  0
   -1.9200   -1.5095    0.0000 C   0  0  0  0  0  0  0  0  0  0  0  0
    2.4461    1.0947    0.0000 C   0  0  0  0  0  0  0  0  0  0  0  0
    2.6597    0.2978    0.0000 C   0  0  0  0  0  0  0  0  0  0  0  0
    3.4565    0.0843    0.0000 C   0  0  0  0  0  0  0  0  0  0  0  0
    4.0399    0.6677    0.0000 C   0  0  0  0  0  0  0  0  0  0  0  0
    3.8264    1.4645    0.0000 C   0  0  0  0  0  0  0  0  0  0  0  0
    3.0295    1.6781    0.0000 C   0  0  0  0  0  0  0  0  0  0  0  0
   -3.4565    1.0375    0.0000 C   0  0  0  0  0  0  0  0  0  0  0  0
    4.8368    0.4541    0.0000 N   0  0  0  0  0  0  0  0  0  0  0  0
    5.0503   -0.3428    0.0000 C   0  0  0  0  0  0  0  0  0  0  0  0
    5.8472   -0.5563    0.0000 O   0  0  0  0  0  0  0  0  0  0  0  0
    4.4670   -0.9261    0.0000 O   0  0  0  0  0  0  0  0  0  0  0  0
    6.4306    0.0271    0.0000 C   0  0  0  0  0  0  0  0  0  0  0  0
    7.2275   -0.1865    0.0000 C   0  0  0  0  0  0  0  0  0  0  0  0
    6.2171    0.8240    0.0000 C   0  0  0  0  0  0  0  0  0  0  0  0
   -4.2534    0.8240    0.0000 O   0  0  0  0  0  0  0  0  0  0  0  0
   -3.2430    1.8344    0.0000 O   0  0  0  0  0  0  0  0  0  0  0  0
   -4.8368    1.4073    0.0000 C   0  0  0  0  0  0  0  0  0  0  0  0
   -5.6337    1.1938    0.0000 C   0  0  0  0  0  0  0  0  0  0  0  0
   -6.2171    1.7772    0.0000 C   0  0  0  0  0  0  0  0  0  0  0  0
   -7.0139    1.5636    0.0000 C   0  0  0  0  0  0  0  0  0  0  0  0
   -7.2275    0.7668    0.0000 C   0  0  0  0  0  0  0  0  0  0  0  0
   -6.6441    0.1834    0.0000 C   0  0  0  0  0  0  0  0  0  0  0  0
   -5.8472    0.3969    0.0000 C   0  0  0  0  0  0  0  0  0  0  0  0
  1  2  4  0  0  0  0
  2  3  4  0  0  0  0
  3  4  4  0  0  0  0
  4  5  4  0  0  0  0
  5  1  4  0  0  0  0
  3  6  1  0  0  0  0
  6  7  4  0  0  0  0
  7  8  4  0  0  0  0
  8  9  4  0  0  0  0
  9 10  4  0  0  0  0
 10 11  4  0  0  0  0
 11  6  4  0  0  0  0
  9 12  1  0  0  0  0
 12 27  1  0  0  0  0
 11 13  1  0  0  0  0
 13 14  1  0  0  0  0
 13 15  2  0  0  0  0
 16 13  2  0  0  0  0
 14 17  1  0  0  0  0
 17 18  1  0  0  0  0
 17 19  1  0  0  0  0
 17 20  1  0  0  0  0
  5 21  1  0  0  0  0
 21 22  4  0  0  0  0
 22 23  4  0  0  0  0
 23 24  4  0  0  0  0
 24 25  4  0  0  0  0
 25 26  4  0  0  0  0
 26 21  4  0  0  0  0
 24 28  1  0  0  0  0
 28 29  1  0  0  0  0
 29 30  1  0  0  0  0
 29 31  2  0  0  0  0
 30 32  1  0  0  0  0
 32 33  1  0  0  0  0
 32 34  1  0  0  0  0
 27 35  1  0  0  0  0
 27 36  2  0  0  0  0
 35 37  1  0  0  0  0
 37 38  1  0  0  0  0
 38 39  4  0  0  0  0
 39 40  4  0  0  0  0
 40 41  4  0  0  0  0
 41 42  4  0  0  0  0
 42 43  4  0  0  0  0
 43 38  4  0  0  0  0
M  END
> <From>
www.bindingDB.org

> <BindingDB Reactant_set_id>
1155286

> <Ligand InChI>
InChI=1S/C31H34N4O6S2/c1-20(2)41-30(37)33-23-13-11-22(12-14-23)28-32-18-26(42-28)25-16-15-24(17-27(25)43(38,39)35-31(3,4)5)34-29(36)40-19-21-9-7-6-8-10-21/h6-18,20,35H,19H2,1-5H3,(H,33,37)(H,34,36)

> <Ligand InChI Key>
YLHLRFOJRWVJKL-UHFFFAOYSA-N

> <BindingDB MonomerID>
546437

> <BindingDB Ligand Name>
US11291655, No H5

> <Target Name>
DNA repair protein RAD51 homolog 1

> <Target Source Organism According to Curator or DataSource>
Homo sapiens

> <Ki (nM)>


> <IC50 (nM)>


> <Kd (nM)>


> <EC50 (nM)>
<1000

> <kon (M-1-s-1)>


> <koff (s-1)>


> <pH>


> <Temp C>


> <Curation/DataSource>
US Patent

> <Article DOI>


> <BindingDB Entry DOI>
10.7270/Q2NG4TV0

> <PMID>


> <PubChem AID>
aid1806421

> <Patent Number>
US11291655

> <Authors>
Castro, AC; McComas, CC; Vacca, J

> <Date of publication>
4/5/2022

> <Date in BindingDB>
7/21/2022

> <Institution>
Cyteir Therapeutics, Inc.

> <Link to Ligand in BindingDB>
http://www.bindingdb.org/bind/chemsearch/marvin/MolStructure.jsp?monomerid=546437

> <Link to Ligand-Target Pair in BindingDB>
http://www.bindingdb.org/jsp/dbsearch/PrimarySearch_ki.jsp?energyterm=kJ/mole&tag=pol&polymerid=4676&target=DNA+repair+protein+RAD51+homolog+1&column=ki&startPg=0&Increment=50&submit=Search

> <Link to Ligand-Target Pair in BindingDB>
http://www.bindingdb.org/jsp/dbsearch/PrimarySearch_ki.jsp?energyterm=kJ/mole&tag=r21&monomerid=546437&enzyme=DNA+repair+protein+RAD51+homolog+1&column=ki&startPg=0&Increment=50&submit=Search

> <Ligand HET ID in PDB>


> <PDB ID(s) for Ligand-Target Complex>


> <PubChem CID of Ligand>
137411872

> <PubChem SID of Ligand>
469681133

> <ChEBI ID of Ligand>


> <ChEMBL ID of Ligand>


> <DrugBank ID of Ligand>


> <IUPHAR_GRAC ID of Ligand>


> <KEGG ID of Ligand>


> <ZINC ID of Ligand>


> <Number of Protein Chains in Target (bigger than 1 implies a multichain complex)>
1

> <BindingDB Target Chain Sequence>
MAMQMQLEANADTSVEEESFGPQPISRLEQCGINANDVKKLEEAGFHTVEAVAYAPKKELINIKGISEAKADKILAEAAKLVPMGFTTATEFHQRRSEIIQITTGSKELDKLLQGGIETGSITEMFGEFRTGKTQICHTLAVTCQLPIDRGGGEGKAMYIDTEGTFRPERLLAVAERYGLSGSDVLDNVAYARAFNTDHQTQLLYQASAMMVESRYALLIVDSATALYRTDYSGRGELSARQMHLARFLRMLLRLADEFGVAVVITNQVVAQVDGAAMFAADPKKPIGGNIIAHASTTRLYLRKGRGETRICKIYDSPCLPEAEAMFAINADGVGDAKD

> <PDB ID(s) of Target Chain>
1N0W,5JZC,5NP7,5NWL,8BQ2,8BR2,8BSC

> <UniProt (SwissProt) Recommended Name of Target Chain>
DNA repair protein RAD51 homolog 1

> <UniProt (SwissProt) Entry Name of Target Chain>
RAD51_HUMAN

> <UniProt (SwissProt) Primary ID of Target Chain>
Q06609

> <UniProt (SwissProt) Secondary ID(s) of Target Chain>
B0FXP0 B2R8T6 Q6FHX9 Q6ZNA8 Q9BV60

> <UniProt (SwissProt) Alternative ID(s) of Target Chain>


> <UniProt (TrEMBL) Submitted Name of Target Chain>


> <UniProt (TrEMBL) Entry Name of Target Chain>


> <UniProt (TrEMBL) Primary ID of Target Chain>


> <UniProt (TrEMBL) Secondary ID(s) of Target Chain>


> <UniProt (TrEMBL) Alternative ID(s) of Target Chain>


$$$$
00297001.cdx
  Mrv0541 07212217012D          

 38 40  0  0  0  0            999 V2000
    0.5974    2.0929    0.0000 N   0  0  0  0  0  0  0  0  0  0  0  0
   -0.2276    2.0929    0.0000 C   0  0  0  0  0  0  0  0  0  0  0  0
   -0.4825    1.3082    0.0000 C   0  0  0  0  0  0  0  0  0  0  0  0
    0.1849    0.8233    0.0000 S   0  0  0  0  0  0  0  0  0  0  0  0
    0.8524    1.3082    0.0000 C   0  0  0  0  0  0  0  0  0  0  0  0
   -1.2794    1.0947    0.0000 C   0  0  0  0  0  0  0  0  0  0  0  0
   -1.8628    1.6781    0.0000 C   0  0  0  0  0  0  0  0  0  0  0  0
   -2.6597    1.4645    0.0000 C   0  0  0  0  0  0  0  0  0  0  0  0
   -2.8732    0.6677    0.0000 C   0  0  0  0  0  0  0  0  0  0  0  0
   -2.2898    0.0843    0.0000 C   0  0  0  0  0  0  0  0  0  0  0  0
   -1.4929    0.2978    0.0000 C   0  0  0  0  0  0  0  0  0  0  0  0
   -3.6701    0.4541    0.0000 N   0  0  0  0  0  0  0  0  0  0  0  0
   -0.9096   -0.2855    0.0000 S   0  0  0  0  0  0  0  0  0  0  0  0
   -1.1231   -1.0824    0.0000 N   0  0  0  0  0  0  0  0  0  0  0  0
   -0.1127   -0.4991    0.0000 O   0  0  0  0  0  0  0  0  0  0  0  0
   -0.3262    0.2978    0.0000 O   0  0  0  0  0  0  0  0  0  0  0  0
   -1.9200   -1.2960    0.0000 C   0  0  0  0  0  0  0  0  0  0  0  0
   -2.1335   -2.0929    0.0000 C   0  0  0  0  0  0  0  0  0  0  0  0
   -2.5033   -0.7126    0.0000 C   0  0  0  0  0  0  0  0  0  0  0  0
   -2.7169   -1.5095    0.0000 C   0  0  0  0  0  0  0  0  0  0  0  0
    1.6492    1.0947    0.0000 C   0  0  0  0  0  0  0  0  0  0  0  0
    1.8628    0.2978    0.0000 C   0  0  0  0  0  0  0  0  0  0  0  0
    2.6597    0.0843    0.0000 C   0  0  0  0  0  0  0  0  0  0  0  0
    3.2430    0.6677    0.0000 C   0  0  0  0  0  0  0  0  0  0  0  0
    3.0295    1.4645    0.0000 C   0  0  0  0  0  0  0  0  0  0  0  0
    2.2326    1.6781    0.0000 C   0  0  0  0  0  0  0  0  0  0  0  0
   -4.2534    1.0375    0.0000 C   0  0  0  0  0  0  0  0  0  0  0  0
    4.0399    0.4541    0.0000 N   0  0  0  0  0  0  0  0  0  0  0  0
    4.2534   -0.3428    0.0000 C   0  0  0  0  0  0  0  0  0  0  0  0
    5.0503   -0.5563    0.0000 O   0  0  0  0  0  0  0  0  0  0  0  0
    3.6701   -0.9261    0.0000 O   0  0  0  0  0  0  0  0  0  0  0  0
    5.6337    0.0271    0.0000 C   0  0  0  0  0  0  0  0  0  0  0  0
    6.4306   -0.1865    0.0000 C   0  0  0  0  0  0  0  0  0  0  0  0
    5.4202    0.8240    0.0000 C   0  0  0  0  0  0  0  0  0  0  0  0
   -5.0503    0.8240    0.0000 O   0  0  0  0  0  0  0  0  0  0  0  0
   -4.0399    1.8344    0.0000 O   0  0  0  0  0  0  0  0  0  0  0  0
   -5.6337    1.4073    0.0000 C   0  0  0  0  0  0  0  0  0  0  0  0
   -6.4306    1.1938    0.0000 C   0  0  0  0  0  0  0  0  0  0  0  0
  1  2  4  0  0  0  0
  2  3  4  0  0  0  0
  3  4  4  0  0  0  0
  4  5  4  0  0  0  0
  5  1  4  0  0  0  0
  3  6  1  0  0  0  0
  6  7  4  0  0  0  0
  7  8  4  0  0  0  0
  8  9  4  0  0  0  0
  9 10  4  0  0  0  0
 10 11  4  0  0  0  0
 11  6  4  0  0  0  0
  9 12  1  0  0  0  0
 12 27  1  0  0  0  0
 11 13  1  0  0  0  0
 13 14  1  0  0  0  0
 13 15  2  0  0  0  0
 16 13  2  0  0  0  0
 14 17  1  0  0  0  0
 17 18  1  0  0  0  0
 17 19  1  0  0  0  0
 17 20  1  0  0  0  0
  5 21  1  0  0  0  0
 21 22  4  0  0  0  0
 22 23  4  0  0  0  0
 23 24  4  0  0  0  0
 24 25  4  0  0  0  0
 25 26  4  0  0  0  0
 26 21  4  0  0  0  0
 24 28  1  0  0  0  0
 28 29  1  0  0  0  0
 29 30  1  0  0  0  0
 29 31  2  0  0  0  0
 30 32  1  0  0  0  0
 32 33  1  0  0  0  0
 32 34  1  0  0  0  0
 27 35  1  0  0  0  0
 27 36  2  0  0  0  0
 35 37  1  0  0  0  0
 37 38  1  0  0  0  0
M  END
> <From>
www.bindingDB.org

> <BindingDB Reactant_set_id>
1155287

> <Ligand InChI>
InChI=1S/C26H32N4O6S2/c1-7-35-24(31)29-19-12-13-20(22(14-19)38(33,34)30-26(4,5)6)21-15-27-23(37-21)17-8-10-18(11-9-17)28-25(32)36-16(2)3/h8-16,30H,7H2,1-6H3,(H,28,32)(H,29,31)

> <Ligand InChI Key>
MDDWPKVBTLMCJB-UHFFFAOYSA-N

> <BindingDB MonomerID>
546438

> <BindingDB Ligand Name>
US11291655, No H6

> <Target Name>
DNA repair protein RAD51 homolog 1

> <Target Source Organism According to Curator or DataSource>
Homo sapiens

> <Ki (nM)>


> <IC50 (nM)>


> <Kd (nM)>


> <EC50 (nM)>
<1000

> <kon (M-1-s-1)>


> <koff (s-1)>


> <pH>


> <Temp C>


> <Curation/DataSource>
US Patent

> <Article DOI>


> <BindingDB Entry DOI>
10.7270/Q2NG4TV0

> <PMID>


> <PubChem AID>
aid1806421

> <Patent Number>
US11291655

> <Authors>
Castro, AC; McComas, CC; Vacca, J

> <Date of publication>
4/5/2022

> <Date in BindingDB>
7/21/2022

> <Institution>
Cyteir Therapeutics, Inc.

> <Link to Ligand in BindingDB>
http://www.bindingdb.org/bind/chemsearch/marvin/MolStructure.jsp?monomerid=546438

> <Link to Ligand-Target Pair in BindingDB>
http://www.bindingdb.org/jsp/dbsearch/PrimarySearch_ki.jsp?energyterm=kJ/mole&tag=pol&polymerid=4676&target=DNA+repair+protein+RAD51+homolog+1&column=ki&startPg=0&Increment=50&submit=Search

> <Link to Ligand-Target Pair in BindingDB>
http://www.bindingdb.org/jsp/dbsearch/PrimarySearch_ki.jsp?energyterm=kJ/mole&tag=r21&monomerid=546438&enzyme=DNA+repair+protein+RAD51+homolog+1&column=ki&startPg=0&Increment=50&submit=Search

> <Ligand HET ID in PDB>


> <PDB ID(s) for Ligand-Target Complex>


> <PubChem CID of Ligand>
137412080

> <PubChem SID of Ligand>
469681134

> <ChEBI ID of Ligand>


> <ChEMBL ID of Ligand>


> <DrugBank ID of Ligand>


> <IUPHAR_GRAC ID of Ligand>


> <KEGG ID of Ligand>


> <ZINC ID of Ligand>


> <Number of Protein Chains in Target (bigger than 1 implies a multichain complex)>
1

> <BindingDB Target Chain Sequence>
MAMQMQLEANADTSVEEESFGPQPISRLEQCGINANDVKKLEEAGFHTVEAVAYAPKKELINIKGISEAKADKILAEAAKLVPMGFTTATEFHQRRSEIIQITTGSKELDKLLQGGIETGSITEMFGEFRTGKTQICHTLAVTCQLPIDRGGGEGKAMYIDTEGTFRPERLLAVAERYGLSGSDVLDNVAYARAFNTDHQTQLLYQASAMMVESRYALLIVDSATALYRTDYSGRGELSARQMHLARFLRMLLRLADEFGVAVVITNQVVAQVDGAAMFAADPKKPIGGNIIAHASTTRLYLRKGRGETRICKIYDSPCLPEAEAMFAINADGVGDAKD

> <PDB ID(s) of Target Chain>
1N0W,5JZC,5NP7,5NWL,8BQ2,8BR2,8BSC

> <UniProt (SwissProt) Recommended Name of Target Chain>
DNA repair protein RAD51 homolog 1

> <UniProt (SwissProt) Entry Name of Target Chain>
RAD51_HUMAN

> <UniProt (SwissProt) Primary ID of Target Chain>
Q06609

> <UniProt (SwissProt) Secondary ID(s) of Target Chain>
B0FXP0 B2R8T6 Q6FHX9 Q6ZNA8 Q9BV60

> <UniProt (SwissProt) Alternative ID(s) of Target Chain>


> <UniProt (TrEMBL) Submitted Name of Target Chain>


> <UniProt (TrEMBL) Entry Name of Target Chain>


> <UniProt (TrEMBL) Primary ID of Target Chain>


> <UniProt (TrEMBL) Secondary ID(s) of Target Chain>


> <UniProt (TrEMBL) Alternative ID(s) of Target Chain>


$$$$
00298001.cdx
  Mrv0541 07212217012D          

 37 39  0  0  0  0            999 V2000
    0.1990    2.0929    0.0000 N   0  0  0  0  0  0  0  0  0  0  0  0
   -0.6260    2.0929    0.0000 C   0  0  0  0  0  0  0  0  0  0  0  0
   -0.8810    1.3082    0.0000 C   0  0  0  0  0  0  0  0  0  0  0  0
   -0.2135    0.8233    0.0000 S   0  0  0  0  0  0  0  0  0  0  0  0
    0.4539    1.3082    0.0000 C   0  0  0  0  0  0  0  0  0  0  0  0
   -1.6779    1.0947    0.0000 C   0  0  0  0  0  0  0  0  0  0  0  0
   -2.2612    1.6781    0.0000 C   0  0  0  0  0  0  0  0  0  0  0  0
   -3.0581    1.4645    0.0000 C   0  0  0  0  0  0  0  0  0  0  0  0
   -3.2716    0.6677    0.0000 C   0  0  0  0  0  0  0  0  0  0  0  0
   -2.6883    0.0843    0.0000 C   0  0  0  0  0  0  0  0  0  0  0  0
   -1.8914    0.2978    0.0000 C   0  0  0  0  0  0  0  0  0  0  0  0
   -4.0685    0.4541    0.0000 N   0  0  0  0  0  0  0  0  0  0  0  0
   -1.3080   -0.2855    0.0000 S   0  0  0  0  0  0  0  0  0  0  0  0
   -1.5215   -1.0824    0.0000 N   0  0  0  0  0  0  0  0  0  0  0  0
   -0.5111   -0.4991    0.0000 O   0  0  0  0  0  0  0  0  0  0  0  0
   -0.7247    0.2978    0.0000 O   0  0  0  0  0  0  0  0  0  0  0  0
   -2.3184   -1.2960    0.0000 C   0  0  0  0  0  0  0  0  0  0  0  0
   -2.5320   -2.0929    0.0000 C   0  0  0  0  0  0  0  0  0  0  0  0
   -2.9018   -0.7126    0.0000 C   0  0  0  0  0  0  0  0  0  0  0  0
   -3.1153   -1.5095    0.0000 C   0  0  0  0  0  0  0  0  0  0  0  0
    1.2508    1.0947    0.0000 C   0  0  0  0  0  0  0  0  0  0  0  0
    1.4643    0.2978    0.0000 C   0  0  0  0  0  0  0  0  0  0  0  0
    2.2612    0.0843    0.0000 C   0  0  0  0  0  0  0  0  0  0  0  0
    2.8446    0.6677    0.0000 C   0  0  0  0  0  0  0  0  0  0  0  0
    2.6311    1.4645    0.0000 C   0  0  0  0  0  0  0  0  0  0  0  0
    1.8342    1.6781    0.0000 C   0  0  0  0  0  0  0  0  0  0  0  0
   -4.6519    1.0375    0.0000 C   0  0  0  0  0  0  0  0  0  0  0  0
    3.6415    0.4541    0.0000 N   0  0  0  0  0  0  0  0  0  0  0  0
    3.8550   -0.3428    0.0000 C   0  0  0  0  0  0  0  0  0  0  0  0
    4.6519   -0.5563    0.0000 O   0  0  0  0  0  0  0  0  0  0  0  0
    3.2716   -0.9261    0.0000 O   0  0  0  0  0  0  0  0  0  0  0  0
    5.2352    0.0271    0.0000 C   0  0  0  0  0  0  0  0  0  0  0  0
    6.0321   -0.1865    0.0000 C   0  0  0  0  0  0  0  0  0  0  0  0
    5.0217    0.8240    0.0000 C   0  0  0  0  0  0  0  0  0  0  0  0
   -5.4488    0.8240    0.0000 O   0  0  0  0  0  0  0  0  0  0  0  0
   -4.4384    1.8344    0.0000 O   0  0  0  0  0  0  0  0  0  0  0  0
   -6.0321    1.4073    0.0000 C   0  0  0  0  0  0  0  0  0  0  0  0
  1  2  4  0  0  0  0
  2  3  4  0  0  0  0
  3  4  4  0  0  0  0
  4  5  4  0  0  0  0
  5  1  4  0  0  0  0
  3  6  1  0  0  0  0
  6  7  4  0  0  0  0
  7  8  4  0  0  0  0
  8  9  4  0  0  0  0
  9 10  4  0  0  0  0
 10 11  4  0  0  0  0
 11  6  4  0  0  0  0
  9 12  1  0  0  0  0
 12 27  1  0  0  0  0
 11 13  1  0  0  0  0
 13 14  1  0  0  0  0
 13 15  2  0  0  0  0
 16 13  2  0  0  0  0
 14 17  1  0  0  0  0
 17 18  1  0  0  0  0
 17 19  1  0  0  0  0
 17 20  1  0  0  0  0
  5 21  1  0  0  0  0
 21 22  4  0  0  0  0
 22 23  4  0  0  0  0
 23 24  4  0  0  0  0
 24 25  4  0  0  0  0
 25 26  4  0  0  0  0
 26 21  4  0  0  0  0
 24 28  1  0  0  0  0
 28 29  1  0  0  0  0
 29 30  1  0  0  0  0
 29 31  2  0  0  0  0
 30 32  1  0  0  0  0
 32 33  1  0  0  0  0
 32 34  1  0  0  0  0
 27 35  1  0  0  0  0
 27 36  2  0  0  0  0
 35 37  1  0  0  0  0
M  END
> <From>
www.bindingDB.org

> <BindingDB Reactant_set_id>
1155288

> <Ligand InChI>
InChI=1S/C25H30N4O6S2/c1-15(2)35-24(31)27-17-9-7-16(8-10-17)22-26-14-20(36-22)19-12-11-18(28-23(30)34-6)13-21(19)37(32,33)29-25(3,4)5/h7-15,29H,1-6H3,(H,27,31)(H,28,30)

> <Ligand InChI Key>
HFJAPAVFLAQECW-UHFFFAOYSA-N

> <BindingDB MonomerID>
546439

> <BindingDB Ligand Name>
US11291655, No H7

> <Target Name>
DNA repair protein RAD51 homolog 1

> <Target Source Organism According to Curator or DataSource>
Homo sapiens

> <Ki (nM)>


> <IC50 (nM)>


> <Kd (nM)>


> <EC50 (nM)>
<1000

> <kon (M-1-s-1)>


> <koff (s-1)>


> <pH>


> <Temp C>


> <Curation/DataSource>
US Patent

> <Article DOI>


> <BindingDB Entry DOI>
10.7270/Q2NG4TV0

> <PMID>


> <PubChem AID>
aid1806421

> <Patent Number>
US11291655

> <Authors>
Castro, AC; McComas, CC; Vacca, J

> <Date of publication>
4/5/2022

> <Date in BindingDB>
7/21/2022

> <Institution>
Cyteir Therapeutics, Inc.

> <Link to Ligand in BindingDB>
http://www.bindingdb.org/bind/chemsearch/marvin/MolStructure.jsp?monomerid=546439

> <Link to Ligand-Target Pair in BindingDB>
http://www.bindingdb.org/jsp/dbsearch/PrimarySearch_ki.jsp?energyterm=kJ/mole&tag=pol&polymerid=4676&target=DNA+repair+protein+RAD51+homolog+1&column=ki&startPg=0&Increment=50&submit=Search

> <Link to Ligand-Target Pair in BindingDB>
http://www.bindingdb.org/jsp/dbsearch/PrimarySearch_ki.jsp?energyterm=kJ/mole&tag=r21&monomerid=546439&enzyme=DNA+repair+protein+RAD51+homolog+1&column=ki&startPg=0&Increment=50&submit=Search

> <Ligand HET ID in PDB>


> <PDB ID(s) for Ligand-Target Complex>


> <PubChem CID of Ligand>
137412065

> <PubChem SID of Ligand>
469681135

> <ChEBI ID of Ligand>


> <ChEMBL ID of Ligand>


> <DrugBank ID of Ligand>


> <IUPHAR_GRAC ID of Ligand>


> <KEGG ID of Ligand>


> <ZINC ID of Ligand>


> <Number of Protein Chains in Target (bigger than 1 implies a multichain complex)>
1

> <BindingDB Target Chain Sequence>
MAMQMQLEANADTSVEEESFGPQPISRLEQCGINANDVKKLEEAGFHTVEAVAYAPKKELINIKGISEAKADKILAEAAKLVPMGFTTATEFHQRRSEIIQITTGSKELDKLLQGGIETGSITEMFGEFRTGKTQICHTLAVTCQLPIDRGGGEGKAMYIDTEGTFRPERLLAVAERYGLSGSDVLDNVAYARAFNTDHQTQLLYQASAMMVESRYALLIVDSATALYRTDYSGRGELSARQMHLARFLRMLLRLADEFGVAVVITNQVVAQVDGAAMFAADPKKPIGGNIIAHASTTRLYLRKGRGETRICKIYDSPCLPEAEAMFAINADGVGDAKD

> <PDB ID(s) of Target Chain>
1N0W,5JZC,5NP7,5NWL,8BQ2,8BR2,8BSC

> <UniProt (SwissProt) Recommended Name of Target Chain>
DNA repair protein RAD51 homolog 1

> <UniProt (SwissProt) Entry Name of Target Chain>
RAD51_HUMAN

> <UniProt (SwissProt) Primary ID of Target Chain>
Q06609

> <UniProt (SwissProt) Secondary ID(s) of Target Chain>
B0FXP0 B2R8T6 Q6FHX9 Q6ZNA8 Q9BV60

> <UniProt (SwissProt) Alternative ID(s) of Target Chain>


> <UniProt (TrEMBL) Submitted Name of Target Chain>


> <UniProt (TrEMBL) Entry Name of Target Chain>


> <UniProt (TrEMBL) Primary ID of Target Chain>


> <UniProt (TrEMBL) Secondary ID(s) of Target Chain>


> <UniProt (TrEMBL) Alternative ID(s) of Target Chain>


$$$$
00299001.cdx
  Mrv0541 07212217012D          

 39 41  0  0  0  0            999 V2000
    0.5974    2.0372    0.0000 N   0  0  0  0  0  0  0  0  0  0  0  0
   -0.2276    2.0372    0.0000 C   0  0  0  0  0  0  0  0  0  0  0  0
   -0.4825    1.2525    0.0000 C   0  0  0  0  0  0  0  0  0  0  0  0
    0.1849    0.7676    0.0000 S   0  0  0  0  0  0  0  0  0  0  0  0
    0.8524    1.2525    0.0000 C   0  0  0  0  0  0  0  0  0  0  0  0
   -1.2794    1.0390    0.0000 C   0  0  0  0  0  0  0  0  0  0  0  0
   -1.8628    1.6224    0.0000 C   0  0  0  0  0  0  0  0  0  0  0  0
   -2.6597    1.4089    0.0000 C   0  0  0  0  0  0  0  0  0  0  0  0
   -2.8732    0.6120    0.0000 C   0  0  0  0  0  0  0  0  0  0  0  0
   -2.2898    0.0286    0.0000 C   0  0  0  0  0  0  0  0  0  0  0  0
   -1.4929    0.2421    0.0000 C   0  0  0  0  0  0  0  0  0  0  0  0
   -3.6701    0.3984    0.0000 N   0  0  0  0  0  0  0  0  0  0  0  0
   -0.9096   -0.3412    0.0000 S   0  0  0  0  0  0  0  0  0  0  0  0
   -1.1231   -1.1381    0.0000 N   0  0  0  0  0  0  0  0  0  0  0  0
   -0.1127   -0.5548    0.0000 O   0  0  0  0  0  0  0  0  0  0  0  0
   -0.3262    0.2421    0.0000 O   0  0  0  0  0  0  0  0  0  0  0  0
   -1.9200   -1.3516    0.0000 C   0  0  0  0  0  0  0  0  0  0  0  0
   -2.1335   -2.1485    0.0000 C   0  0  0  0  0  0  0  0  0  0  0  0
   -2.5033   -0.7683    0.0000 C   0  0  0  0  0  0  0  0  0  0  0  0
   -2.7169   -1.5652    0.0000 C   0  0  0  0  0  0  0  0  0  0  0  0
    1.6492    1.0390    0.0000 C   0  0  0  0  0  0  0  0  0  0  0  0
    1.8628    0.2421    0.0000 C   0  0  0  0  0  0  0  0  0  0  0  0
    2.6597    0.0286    0.0000 C   0  0  0  0  0  0  0  0  0  0  0  0
    3.2430    0.6120    0.0000 C   0  0  0  0  0  0  0  0  0  0  0  0
    3.0295    1.4089    0.0000 C   0  0  0  0  0  0  0  0  0  0  0  0
    2.2326    1.6224    0.0000 C   0  0  0  0  0  0  0  0  0  0  0  0
   -4.2534    0.9818    0.0000 C   0  0  0  0  0  0  0  0  0  0  0  0
    4.0399    0.3984    0.0000 N   0  0  0  0  0  0  0  0  0  0  0  0
    4.2534   -0.3984    0.0000 C   0  0  0  0  0  0  0  0  0  0  0  0
    5.0503   -0.6120    0.0000 O   0  0  0  0  0  0  0  0  0  0  0  0
    3.6701   -0.9818    0.0000 O   0  0  0  0  0  0  0  0  0  0  0  0
    5.6337   -0.0286    0.0000 C   0  0  0  0  0  0  0  0  0  0  0  0
    6.4306   -0.2421    0.0000 C   0  0  0  0  0  0  0  0  0  0  0  0
    5.4202    0.7683    0.0000 C   0  0  0  0  0  0  0  0  0  0  0  0
   -5.0503    0.7683    0.0000 O   0  0  0  0  0  0  0  0  0  0  0  0
   -4.0399    1.7787    0.0000 O   0  0  0  0  0  0  0  0  0  0  0  0
   -5.6337    1.3516    0.0000 C   0  0  0  0  0  0  0  0  0  0  0  0
   -6.4306    1.1381    0.0000 C   0  0  0  0  0  0  0  0  0  0  0  0
   -5.4202    2.1485    0.0000 C   0  0  0  0  0  0  0  0  0  0  0  0
  1  2  4  0  0  0  0
  2  3  4  0  0  0  0
  3  4  4  0  0  0  0
  4  5  4  0  0  0  0
  5  1  4  0  0  0  0
  3  6  1  0  0  0  0
  6  7  4  0  0  0  0
  7  8  4  0  0  0  0
  8  9  4  0  0  0  0
  9 10  4  0  0  0  0
 10 11  4  0  0  0  0
 11  6  4  0  0  0  0
  9 12  1  0  0  0  0
 12 27  1  0  0  0  0
 11 13  1  0  0  0  0
 13 14  1  0  0  0  0
 13 15  2  0  0  0  0
 16 13  2  0  0  0  0
 14 17  1  0  0  0  0
 17 18  1  0  0  0  0
 17 19  1  0  0  0  0
 17 20  1  0  0  0  0
  5 21  1  0  0  0  0
 21 22  4  0  0  0  0
 22 23  4  0  0  0  0
 23 24  4  0  0  0  0
 24 25  4  0  0  0  0
 25 26  4  0  0  0  0
 26 21  4  0  0  0  0
 24 28  1  0  0  0  0
 28 29  1  0  0  0  0
 29 30  1  0  0  0  0
 29 31  2  0  0  0  0
 30 32  1  0  0  0  0
 32 33  1  0  0  0  0
 32 34  1  0  0  0  0
 27 35  1  0  0  0  0
 27 36  2  0  0  0  0
 35 37  1  0  0  0  0
 37 38  1  0  0  0  0
 37 39  1  0  0  0  0
M  END
> <From>
www.bindingDB.org

> <BindingDB Reactant_set_id>
1155289

> <Ligand InChI>
InChI=1S/C27H34N4O6S2/c1-16(2)36-25(32)29-19-10-8-18(9-11-19)24-28-15-22(38-24)21-13-12-20(30-26(33)37-17(3)4)14-23(21)39(34,35)31-27(5,6)7/h8-17,31H,1-7H3,(H,29,32)(H,30,33)

> <Ligand InChI Key>
JAJWHZLWFOPQKO-UHFFFAOYSA-N

> <BindingDB MonomerID>
546440

> <BindingDB Ligand Name>
US11291655, No H8

> <Target Name>
DNA repair protein RAD51 homolog 1

> <Target Source Organism According to Curator or DataSource>
Homo sapiens

> <Ki (nM)>


> <IC50 (nM)>


> <Kd (nM)>


> <EC50 (nM)>
<1000

> <kon (M-1-s-1)>


> <koff (s-1)>


> <pH>


> <Temp C>


> <Curation/DataSource>
US Patent

> <Article DOI>


> <BindingDB Entry DOI>
10.7270/Q2NG4TV0

> <PMID>


> <PubChem AID>
aid1806421

> <Patent Number>
US11291655

> <Authors>
Castro, AC; McComas, CC; Vacca, J

> <Date of publication>
4/5/2022

> <Date in BindingDB>
7/21/2022

> <Institution>
Cyteir Therapeutics, Inc.

> <Link to Ligand in BindingDB>
http://www.bindingdb.org/bind/chemsearch/marvin/MolStructure.jsp?monomerid=546440

> <Link to Ligand-Target Pair in BindingDB>
http://www.bindingdb.org/jsp/dbsearch/PrimarySearch_ki.jsp?energyterm=kJ/mole&tag=pol&polymerid=4676&target=DNA+repair+protein+RAD51+homolog+1&column=ki&startPg=0&Increment=50&submit=Search

> <Link to Ligand-Target Pair in BindingDB>
http://www.bindingdb.org/jsp/dbsearch/PrimarySearch_ki.jsp?energyterm=kJ/mole&tag=r21&monomerid=546440&enzyme=DNA+repair+protein+RAD51+homolog+1&column=ki&startPg=0&Increment=50&submit=Search

> <Ligand HET ID in PDB>


> <PDB ID(s) for Ligand-Target Complex>


> <PubChem CID of Ligand>
137412064

> <PubChem SID of Ligand>
469681136

> <ChEBI ID of Ligand>


> <ChEMBL ID of Ligand>


> <DrugBank ID of Ligand>


> <IUPHAR_GRAC ID of Ligand>


> <KEGG ID of Ligand>


> <ZINC ID of Ligand>


> <Number of Protein Chains in Target (bigger than 1 implies a multichain complex)>
1

> <BindingDB Target Chain Sequence>
MAMQMQLEANADTSVEEESFGPQPISRLEQCGINANDVKKLEEAGFHTVEAVAYAPKKELINIKGISEAKADKILAEAAKLVPMGFTTATEFHQRRSEIIQITTGSKELDKLLQGGIETGSITEMFGEFRTGKTQICHTLAVTCQLPIDRGGGEGKAMYIDTEGTFRPERLLAVAERYGLSGSDVLDNVAYARAFNTDHQTQLLYQASAMMVESRYALLIVDSATALYRTDYSGRGELSARQMHLARFLRMLLRLADEFGVAVVITNQVVAQVDGAAMFAADPKKPIGGNIIAHASTTRLYLRKGRGETRICKIYDSPCLPEAEAMFAINADGVGDAKD

> <PDB ID(s) of Target Chain>
1N0W,5JZC,5NP7,5NWL,8BQ2,8BR2,8BSC

> <UniProt (SwissProt) Recommended Name of Target Chain>
DNA repair protein RAD51 homolog 1

> <UniProt (SwissProt) Entry Name of Target Chain>
RAD51_HUMAN

> <UniProt (SwissProt) Primary ID of Target Chain>
Q06609

> <UniProt (SwissProt) Secondary ID(s) of Target Chain>
B0FXP0 B2R8T6 Q6FHX9 Q6ZNA8 Q9BV60

> <UniProt (SwissProt) Alternative ID(s) of Target Chain>


> <UniProt (TrEMBL) Submitted Name of Target Chain>


> <UniProt (TrEMBL) Entry Name of Target Chain>


> <UniProt (TrEMBL) Primary ID of Target Chain>


> <UniProt (TrEMBL) Secondary ID(s) of Target Chain>


> <UniProt (TrEMBL) Alternative ID(s) of Target Chain>


$$$$
00300001.cdx
  Mrv0541 07212217012D          

 41 44  0  0  0  0            999 V2000
    0.7042    2.0929    0.0000 N   0  0  0  0  0  0  0  0  0  0  0  0
   -0.1208    2.0929    0.0000 C   0  0  0  0  0  0  0  0  0  0  0  0
   -0.3758    1.3082    0.0000 C   0  0  0  0  0  0  0  0  0  0  0  0
    0.2917    0.8233    0.0000 S   0  0  0  0  0  0  0  0  0  0  0  0
    0.9591    1.3082    0.0000 C   0  0  0  0  0  0  0  0  0  0  0  0
   -1.1726    1.0947    0.0000 C   0  0  0  0  0  0  0  0  0  0  0  0
   -1.7560    1.6781    0.0000 C   0  0  0  0  0  0  0  0  0  0  0  0
   -2.5529    1.4645    0.0000 C   0  0  0  0  0  0  0  0  0  0  0  0
   -2.7664    0.6677    0.0000 C   0  0  0  0  0  0  0  0  0  0  0  0
   -2.1831    0.0843    0.0000 C   0  0  0  0  0  0  0  0  0  0  0  0
   -1.3862    0.2978    0.0000 C   0  0  0  0  0  0  0  0  0  0  0  0
   -3.5633    0.4541    0.0000 N   0  0  0  0  0  0  0  0  0  0  0  0
   -0.8028   -0.2855    0.0000 S   0  0  0  0  0  0  0  0  0  0  0  0
   -1.0163   -1.0824    0.0000 N   0  0  0  0  0  0  0  0  0  0  0  0
   -0.0059   -0.4991    0.0000 O   0  0  0  0  0  0  0  0  0  0  0  0
   -0.2194    0.2978    0.0000 O   0  0  0  0  0  0  0  0  0  0  0  0
   -1.8132   -1.2960    0.0000 C   0  0  0  0  0  0  0  0  0  0  0  0
   -2.0267   -2.0929    0.0000 C   0  0  0  0  0  0  0  0  0  0  0  0
   -2.3966   -0.7126    0.0000 C   0  0  0  0  0  0  0  0  0  0  0  0
   -2.6101   -1.5095    0.0000 C   0  0  0  0  0  0  0  0  0  0  0  0
    1.7560    1.0947    0.0000 C   0  0  0  0  0  0  0  0  0  0  0  0
    1.9695    0.2978    0.0000 C   0  0  0  0  0  0  0  0  0  0  0  0
    2.7664    0.0843    0.0000 C   0  0  0  0  0  0  0  0  0  0  0  0
    3.3498    0.6677    0.0000 C   0  0  0  0  0  0  0  0  0  0  0  0
    3.1363    1.4645    0.0000 C   0  0  0  0  0  0  0  0  0  0  0  0
    2.3394    1.6781    0.0000 C   0  0  0  0  0  0  0  0  0  0  0  0
   -4.1467    1.0375    0.0000 C   0  0  0  0  0  0  0  0  0  0  0  0
    4.1467    0.4541    0.0000 N   0  0  0  0  0  0  0  0  0  0  0  0
    4.3602   -0.3428    0.0000 C   0  0  0  0  0  0  0  0  0  0  0  0
    5.1571   -0.5563    0.0000 O   0  0  0  0  0  0  0  0  0  0  0  0
    3.7768   -0.9261    0.0000 O   0  0  0  0  0  0  0  0  0  0  0  0
    5.7405    0.0271    0.0000 C   0  0  0  0  0  0  0  0  0  0  0  0
    6.5373   -0.1865    0.0000 C   0  0  0  0  0  0  0  0  0  0  0  0
    5.5269    0.8240    0.0000 C   0  0  0  0  0  0  0  0  0  0  0  0
   -4.9436    0.8240    0.0000 C   0  0  0  0  0  0  0  0  0  0  0  0
   -3.9332    1.8344    0.0000 O   0  0  0  0  0  0  0  0  0  0  0  0
   -5.5269    1.4073    0.0000 C   0  0  0  0  0  0  0  0  0  0  0  0
   -6.3238    1.1938    0.0000 C   0  0  0  0  0  0  0  0  0  0  0  0
   -6.5373    0.3969    0.0000 C   0  0  0  0  0  0  0  0  0  0  0  0
   -5.9540   -0.1865    0.0000 C   0  0  0  0  0  0  0  0  0  0  0  0
   -5.1571    0.0271    0.0000 C   0  0  0  0  0  0  0  0  0  0  0  0
  1  2  4  0  0  0  0
  2  3  4  0  0  0  0
  3  4  4  0  0  0  0
  4  5  4  0  0  0  0
  5  1  4  0  0  0  0
  3  6  1  0  0  0  0
  6  7  4  0  0  0  0
  7  8  4  0  0  0  0
  8  9  4  0  0  0  0
  9 10  4  0  0  0  0
 10 11  4  0  0  0  0
 11  6  4  0  0  0  0
  9 12  1  0  0  0  0
 12 27  1  0  0  0  0
 11 13  1  0  0  0  0
 13 14  1  0  0  0  0
 13 15  2  0  0  0  0
 16 13  2  0  0  0  0
 14 17  1  0  0  0  0
 17 18  1  0  0  0  0
 17 19  1  0  0  0  0
 17 20  1  0  0  0  0
  5 21  1  0  0  0  0
 21 22  4  0  0  0  0
 22 23  4  0  0  0  0
 23 24  4  0  0  0  0
 24 25  4  0  0  0  0
 25 26  4  0  0  0  0
 26 21  4  0  0  0  0
 24 28  1  0  0  0  0
 28 29  1  0  0  0  0
 29 30  1  0  0  0  0
 29 31  2  0  0  0  0
 30 32  1  0  0  0  0
 32 33  1  0  0  0  0
 32 34  1  0  0  0  0
 27 35  1  0  0  0  0
 27 36  2  0  0  0  0
 35 37  4  0  0  0  0
 37 38  4  0  0  0  0
 38 39  4  0  0  0  0
 39 40  4  0  0  0  0
 40 41  4  0  0  0  0
 41 35  4  0  0  0  0
M  END
> <From>
www.bindingDB.org

> <BindingDB Reactant_set_id>
1155290

> <Ligand InChI>
InChI=1S/C30H32N4O5S2/c1-19(2)39-29(36)33-22-13-11-21(12-14-22)28-31-18-25(40-28)24-16-15-23(32-27(35)20-9-7-6-8-10-20)17-26(24)41(37,38)34-30(3,4)5/h6-19,34H,1-5H3,(H,32,35)(H,33,36)

> <Ligand InChI Key>
PBAHWXXJKWHZAK-UHFFFAOYSA-N

> <BindingDB MonomerID>
546441

> <BindingDB Ligand Name>
US11291655, No H9

> <Target Name>
DNA repair protein RAD51 homolog 1

> <Target Source Organism According to Curator or DataSource>
Homo sapiens

> <Ki (nM)>


> <IC50 (nM)>


> <Kd (nM)>


> <EC50 (nM)>
<1000

> <kon (M-1-s-1)>


> <koff (s-1)>


> <pH>


> <Temp C>


> <Curation/DataSource>
US Patent

> <Article DOI>


> <BindingDB Entry DOI>
10.7270/Q2NG4TV0

> <PMID>


> <PubChem AID>
aid1806421

> <Patent Number>
US11291655

> <Authors>
Castro, AC; McComas, CC; Vacca, J

> <Date of publication>
4/5/2022

> <Date in BindingDB>
7/21/2022

> <Institution>
Cyteir Therapeutics, Inc.

> <Link to Ligand in BindingDB>
http://www.bindingdb.org/bind/chemsearch/marvin/MolStructure.jsp?monomerid=546441

> <Link to Ligand-Target Pair in BindingDB>
http://www.bindingdb.org/jsp/dbsearch/PrimarySearch_ki.jsp?energyterm=kJ/mole&tag=pol&polymerid=4676&target=DNA+repair+protein+RAD51+homolog+1&column=ki&startPg=0&Increment=50&submit=Search

> <Link to Ligand-Target Pair in BindingDB>
http://www.bindingdb.org/jsp/dbsearch/PrimarySearch_ki.jsp?energyterm=kJ/mole&tag=r21&monomerid=546441&enzyme=DNA+repair+protein+RAD51+homolog+1&column=ki&startPg=0&Increment=50&submit=Search

> <Ligand HET ID in PDB>


> <PDB ID(s) for Ligand-Target Complex>


> <PubChem CID of Ligand>
137411788

> <PubChem SID of Ligand>
469681137

> <ChEBI ID of Ligand>


> <ChEMBL ID of Ligand>


> <DrugBank ID of Ligand>


> <IUPHAR_GRAC ID of Ligand>


> <KEGG ID of Ligand>


> <ZINC ID of Ligand>


> <Number of Protein Chains in Target (bigger than 1 implies a multichain complex)>
1

> <BindingDB Target Chain Sequence>
MAMQMQLEANADTSVEEESFGPQPISRLEQCGINANDVKKLEEAGFHTVEAVAYAPKKELINIKGISEAKADKILAEAAKLVPMGFTTATEFHQRRSEIIQITTGSKELDKLLQGGIETGSITEMFGEFRTGKTQICHTLAVTCQLPIDRGGGEGKAMYIDTEGTFRPERLLAVAERYGLSGSDVLDNVAYARAFNTDHQTQLLYQASAMMVESRYALLIVDSATALYRTDYSGRGELSARQMHLARFLRMLLRLADEFGVAVVITNQVVAQVDGAAMFAADPKKPIGGNIIAHASTTRLYLRKGRGETRICKIYDSPCLPEAEAMFAINADGVGDAKD

> <PDB ID(s) of Target Chain>
1N0W,5JZC,5NP7,5NWL,8BQ2,8BR2,8BSC

> <UniProt (SwissProt) Recommended Name of Target Chain>
DNA repair protein RAD51 homolog 1

> <UniProt (SwissProt) Entry Name of Target Chain>
RAD51_HUMAN

> <UniProt (SwissProt) Primary ID of Target Chain>
Q06609

> <UniProt (SwissProt) Secondary ID(s) of Target Chain>
B0FXP0 B2R8T6 Q6FHX9 Q6ZNA8 Q9BV60

> <UniProt (SwissProt) Alternative ID(s) of Target Chain>


> <UniProt (TrEMBL) Submitted Name of Target Chain>


> <UniProt (TrEMBL) Entry Name of Target Chain>


> <UniProt (TrEMBL) Primary ID of Target Chain>


> <UniProt (TrEMBL) Secondary ID(s) of Target Chain>


> <UniProt (TrEMBL) Alternative ID(s) of Target Chain>


$$$$
00301001.cdx
  Mrv0541 07212217012D          

 35 37  0  0  0  0            999 V2000
   -0.0927    2.0929    0.0000 N   0  0  0  0  0  0  0  0  0  0  0  0
   -0.9177    2.0929    0.0000 C   0  0  0  0  0  0  0  0  0  0  0  0
   -1.1726    1.3082    0.0000 C   0  0  0  0  0  0  0  0  0  0  0  0
   -0.5052    0.8233    0.0000 S   0  0  0  0  0  0  0  0  0  0  0  0
    0.1622    1.3082    0.0000 C   0  0  0  0  0  0  0  0  0  0  0  0
   -1.9695    1.0947    0.0000 C   0  0  0  0  0  0  0  0  0  0  0  0
   -2.5529    1.6781    0.0000 C   0  0  0  0  0  0  0  0  0  0  0  0
   -3.3498    1.4645    0.0000 C   0  0  0  0  0  0  0  0  0  0  0  0
   -3.5633    0.6677    0.0000 C   0  0  0  0  0  0  0  0  0  0  0  0
   -2.9799    0.0843    0.0000 C   0  0  0  0  0  0  0  0  0  0  0  0
   -2.1831    0.2978    0.0000 C   0  0  0  0  0  0  0  0  0  0  0  0
   -4.3602    0.4541    0.0000 N   0  0  0  0  0  0  0  0  0  0  0  0
   -1.5997   -0.2855    0.0000 S   0  0  0  0  0  0  0  0  0  0  0  0
   -1.8132   -1.0824    0.0000 N   0  0  0  0  0  0  0  0  0  0  0  0
   -0.8028   -0.4991    0.0000 O   0  0  0  0  0  0  0  0  0  0  0  0
   -1.0163    0.2978    0.0000 O   0  0  0  0  0  0  0  0  0  0  0  0
   -2.6101   -1.2960    0.0000 C   0  0  0  0  0  0  0  0  0  0  0  0
   -2.8236   -2.0929    0.0000 C   0  0  0  0  0  0  0  0  0  0  0  0
   -3.1935   -0.7126    0.0000 C   0  0  0  0  0  0  0  0  0  0  0  0
   -3.4070   -1.5095    0.0000 C   0  0  0  0  0  0  0  0  0  0  0  0
    0.9591    1.0947    0.0000 C   0  0  0  0  0  0  0  0  0  0  0  0
    1.1726    0.2978    0.0000 C   0  0  0  0  0  0  0  0  0  0  0  0
    1.9695    0.0843    0.0000 C   0  0  0  0  0  0  0  0  0  0  0  0
    2.5529    0.6677    0.0000 C   0  0  0  0  0  0  0  0  0  0  0  0
    2.3394    1.4645    0.0000 C   0  0  0  0  0  0  0  0  0  0  0  0
    1.5425    1.6781    0.0000 C   0  0  0  0  0  0  0  0  0  0  0  0
   -4.9436    1.0375    0.0000 C   0  0  0  0  0  0  0  0  0  0  0  0
    3.3498    0.4541    0.0000 N   0  0  0  0  0  0  0  0  0  0  0  0
    3.5633   -0.3428    0.0000 C   0  0  0  0  0  0  0  0  0  0  0  0
    4.3602   -0.5563    0.0000 O   0  0  0  0  0  0  0  0  0  0  0  0
    2.9799   -0.9261    0.0000 O   0  0  0  0  0  0  0  0  0  0  0  0
    4.9436    0.0271    0.0000 C   0  0  0  0  0  0  0  0  0  0  0  0
    5.7405   -0.1865    0.0000 C   0  0  0  0  0  0  0  0  0  0  0  0
    4.7300    0.8240    0.0000 C   0  0  0  0  0  0  0  0  0  0  0  0
   -5.7405    0.8240    0.0000 C   0  0  0  0  0  0  0  0  0  0  0  0
  1  2  4  0  0  0  0
  2  3  4  0  0  0  0
  3  4  4  0  0  0  0
  4  5  4  0  0  0  0
  5  1  4  0  0  0  0
  3  6  1  0  0  0  0
  6  7  4  0  0  0  0
  7  8  4  0  0  0  0
  8  9  4  0  0  0  0
  9 10  4  0  0  0  0
 10 11  4  0  0  0  0
 11  6  4  0  0  0  0
  9 12  1  0  0  0  0
 12 27  1  0  0  0  0
 11 13  1  0  0  0  0
 13 14  1  0  0  0  0
 13 15  2  0  0  0  0
 16 13  2  0  0  0  0
 14 17  1  0  0  0  0
 17 18  1  0  0  0  0
 17 19  1  0  0  0  0
 17 20  1  0  0  0  0
  5 21  1  0  0  0  0
 21 22  4  0  0  0  0
 22 23  4  0  0  0  0
 23 24  4  0  0  0  0
 24 25  4  0  0  0  0
 25 26  4  0  0  0  0
 26 21  4  0  0  0  0
 24 28  1  0  0  0  0
 28 29  1  0  0  0  0
 29 30  1  0  0  0  0
 29 31  2  0  0  0  0
 30 32  1  0  0  0  0
 32 33  1  0  0  0  0
 32 34  1  0  0  0  0
 27 35  1  0  0  0  0
M  END
> <From>
www.bindingDB.org

> <BindingDB Reactant_set_id>
1155291

> <Ligand InChI>
InChI=1S/C25H32N4O4S2/c1-7-26-19-12-13-20(22(14-19)35(31,32)29-25(4,5)6)21-15-27-23(34-21)17-8-10-18(11-9-17)28-24(30)33-16(2)3/h8-16,26,29H,7H2,1-6H3,(H,28,30)

> <Ligand InChI Key>
GNYBYPCMGBCFHX-UHFFFAOYSA-N

> <BindingDB MonomerID>
546442

> <BindingDB Ligand Name>
US11291655, No I1

> <Target Name>
DNA repair protein RAD51 homolog 1

> <Target Source Organism According to Curator or DataSource>
Homo sapiens

> <Ki (nM)>


> <IC50 (nM)>


> <Kd (nM)>


> <EC50 (nM)>
<5000

> <kon (M-1-s-1)>


> <koff (s-1)>


> <pH>


> <Temp C>


> <Curation/DataSource>
US Patent

> <Article DOI>


> <BindingDB Entry DOI>
10.7270/Q2NG4TV0

> <PMID>


> <PubChem AID>
aid1806421

> <Patent Number>
US11291655

> <Authors>
Castro, AC; McComas, CC; Vacca, J

> <Date of publication>
4/5/2022

> <Date in BindingDB>
7/21/2022

> <Institution>
Cyteir Therapeutics, Inc.

> <Link to Ligand in BindingDB>
http://www.bindingdb.org/bind/chemsearch/marvin/MolStructure.jsp?monomerid=546442

> <Link to Ligand-Target Pair in BindingDB>
http://www.bindingdb.org/jsp/dbsearch/PrimarySearch_ki.jsp?energyterm=kJ/mole&tag=pol&polymerid=4676&target=DNA+repair+protein+RAD51+homolog+1&column=ki&startPg=0&Increment=50&submit=Search

> <Link to Ligand-Target Pair in BindingDB>
http://www.bindingdb.org/jsp/dbsearch/PrimarySearch_ki.jsp?energyterm=kJ/mole&tag=r21&monomerid=546442&enzyme=DNA+repair+protein+RAD51+homolog+1&column=ki&startPg=0&Increment=50&submit=Search

> <Ligand HET ID in PDB>


> <PDB ID(s) for Ligand-Target Complex>


> <PubChem CID of Ligand>
137408607

> <PubChem SID of Ligand>
469681138

> <ChEBI ID of Ligand>


> <ChEMBL ID of Ligand>


> <DrugBank ID of Ligand>


> <IUPHAR_GRAC ID of Ligand>


> <KEGG ID of Ligand>


> <ZINC ID of Ligand>


> <Number of Protein Chains in Target (bigger than 1 implies a multichain complex)>
1

> <BindingDB Target Chain Sequence>
MAMQMQLEANADTSVEEESFGPQPISRLEQCGINANDVKKLEEAGFHTVEAVAYAPKKELINIKGISEAKADKILAEAAKLVPMGFTTATEFHQRRSEIIQITTGSKELDKLLQGGIETGSITEMFGEFRTGKTQICHTLAVTCQLPIDRGGGEGKAMYIDTEGTFRPERLLAVAERYGLSGSDVLDNVAYARAFNTDHQTQLLYQASAMMVESRYALLIVDSATALYRTDYSGRGELSARQMHLARFLRMLLRLADEFGVAVVITNQVVAQVDGAAMFAADPKKPIGGNIIAHASTTRLYLRKGRGETRICKIYDSPCLPEAEAMFAINADGVGDAKD

> <PDB ID(s) of Target Chain>
1N0W,5JZC,5NP7,5NWL,8BQ2,8BR2,8BSC

> <UniProt (SwissProt) Recommended Name of Target Chain>
DNA repair protein RAD51 homolog 1

> <UniProt (SwissProt) Entry Name of Target Chain>
RAD51_HUMAN

> <UniProt (SwissProt) Primary ID of Target Chain>
Q06609

> <UniProt (SwissProt) Secondary ID(s) of Target Chain>
B0FXP0 B2R8T6 Q6FHX9 Q6ZNA8 Q9BV60

> <UniProt (SwissProt) Alternative ID(s) of Target Chain>


> <UniProt (TrEMBL) Submitted Name of Target Chain>


> <UniProt (TrEMBL) Entry Name of Target Chain>


> <UniProt (TrEMBL) Primary ID of Target Chain>


> <UniProt (TrEMBL) Secondary ID(s) of Target Chain>


> <UniProt (TrEMBL) Alternative ID(s) of Target Chain>


$$$$
00302001.cdx
  Mrv0541 07212217012D          

 33 35  0  0  0  0            999 V2000
   -2.0933    0.7293    0.0000 C   0  0  0  0  0  0  0  0  0  0  0  0
   -2.0933   -0.0957    0.0000 C   0  0  0  0  0  0  0  0  0  0  0  0
   -1.3087   -0.3507    0.0000 S   0  0  0  0  0  0  0  0  0  0  0  0
   -0.8238    0.3168    0.0000 C   0  0  0  0  0  0  0  0  0  0  0  0
   -1.3087    0.9842    0.0000 N   0  0  0  0  0  0  0  0  0  0  0  0
   -2.8078   -0.5082    0.0000 C   0  0  0  0  0  0  0  0  0  0  0  0
   -3.5223   -0.0957    0.0000 C   0  0  0  0  0  0  0  0  0  0  0  0
   -4.2367   -0.5082    0.0000 C   0  0  0  0  0  0  0  0  0  0  0  0
   -4.2367   -1.3332    0.0000 C   0  0  0  0  0  0  0  0  0  0  0  0
   -3.5223   -1.7457    0.0000 C   0  0  0  0  0  0  0  0  0  0  0  0
   -2.8078   -1.3332    0.0000 C   0  0  0  0  0  0  0  0  0  0  0  0
   -4.9512   -1.7457    0.0000 O   0  0  0  0  0  0  0  0  0  0  0  0
   -2.0933   -1.7457    0.0000 S   0  0  0  0  0  0  0  0  0  0  0  0
   -1.3789   -2.1582    0.0000 N   0  0  0  0  0  0  0  0  0  0  0  0
   -1.6808   -1.0313    0.0000 O   0  0  0  0  0  0  0  0  0  0  0  0
   -2.5058   -2.4602    0.0000 O   0  0  0  0  0  0  0  0  0  0  0  0
   -0.6644   -1.7457    0.0000 C   0  0  0  0  0  0  0  0  0  0  0  0
    0.0501   -2.1582    0.0000 C   0  0  0  0  0  0  0  0  0  0  0  0
   -0.6644   -0.9207    0.0000 C   0  0  0  0  0  0  0  0  0  0  0  0
    0.0501   -1.3332    0.0000 C   0  0  0  0  0  0  0  0  0  0  0  0
    0.0012    0.3168    0.0000 C   0  0  0  0  0  0  0  0  0  0  0  0
    0.4137   -0.3977    0.0000 C   0  0  0  0  0  0  0  0  0  0  0  0
    1.2387   -0.3977    0.0000 C   0  0  0  0  0  0  0  0  0  0  0  0
    1.6512    0.3168    0.0000 C   0  0  0  0  0  0  0  0  0  0  0  0
    1.2387    1.0313    0.0000 C   0  0  0  0  0  0  0  0  0  0  0  0
    0.4137    1.0313    0.0000 C   0  0  0  0  0  0  0  0  0  0  0  0
    2.4762    0.3168    0.0000 N   0  0  0  0  0  0  0  0  0  0  0  0
    2.8887    1.0313    0.0000 C   0  0  0  0  0  0  0  0  0  0  0  0
    3.7137    1.0313    0.0000 O   0  0  0  0  0  0  0  0  0  0  0  0
    2.4762    1.7457    0.0000 O   0  0  0  0  0  0  0  0  0  0  0  0
    4.1262    1.7457    0.0000 C   0  0  0  0  0  0  0  0  0  0  0  0
    4.9512    1.7457    0.0000 C   0  0  0  0  0  0  0  0  0  0  0  0
    3.7137    2.4602    0.0000 C   0  0  0  0  0  0  0  0  0  0  0  0
  1  2  4  0  0  0  0
  2  3  4  0  0  0  0
  3  4  4  0  0  0  0
  4  5  4  0  0  0  0
  5  1  4  0  0  0  0
  2  6  1  0  0  0  0
  6  7  4  0  0  0  0
  7  8  4  0  0  0  0
  8  9  4  0  0  0  0
  9 10  4  0  0  0  0
 10 11  4  0  0  0  0
 11  6  4  0  0  0  0
  9 12  1  0  0  0  0
 11 13  1  0  0  0  0
 13 14  1  0  0  0  0
 13 15  2  0  0  0  0
 13 16  2  0  0  0  0
 14 17  1  0  0  0  0
 17 18  1  0  0  0  0
 17 19  1  0  0  0  0
 17 20  1  0  0  0  0
  4 21  1  0  0  0  0
 21 22  4  0  0  0  0
 22 23  4  0  0  0  0
 23 24  4  0  0  0  0
 24 25  4  0  0  0  0
 25 26  4  0  0  0  0
 26 21  4  0  0  0  0
 24 27  1  0  0  0  0
 27 28  1  0  0  0  0
 28 29  1  0  0  0  0
 28 30  2  0  0  0  0
 29 31  1  0  0  0  0
 31 32  1  0  0  0  0
 31 33  1  0  0  0  0
M  END
> <From>
www.bindingDB.org

> <BindingDB Reactant_set_id>
1155292

> <Ligand InChI>
InChI=1S/C23H27N3O5S2/c1-14(2)31-22(28)25-16-8-6-15(7-9-16)21-24-13-19(32-21)18-11-10-17(27)12-20(18)33(29,30)26-23(3,4)5/h6-14,26-27H,1-5H3,(H,25,28)

> <Ligand InChI Key>
WCWTUSMUIZBULW-UHFFFAOYSA-N

> <BindingDB MonomerID>
546443

> <BindingDB Ligand Name>
US11291655, No I2

> <Target Name>
DNA repair protein RAD51 homolog 1

> <Target Source Organism According to Curator or DataSource>
Homo sapiens

> <Ki (nM)>


> <IC50 (nM)>


> <Kd (nM)>


> <EC50 (nM)>
<5000

> <kon (M-1-s-1)>


> <koff (s-1)>


> <pH>


> <Temp C>


> <Curation/DataSource>
US Patent

> <Article DOI>


> <BindingDB Entry DOI>
10.7270/Q2NG4TV0

> <PMID>


> <PubChem AID>
aid1806421

> <Patent Number>
US11291655

> <Authors>
Castro, AC; McComas, CC; Vacca, J

> <Date of publication>
4/5/2022

> <Date in BindingDB>
7/21/2022

> <Institution>
Cyteir Therapeutics, Inc.

> <Link to Ligand in BindingDB>
http://www.bindingdb.org/bind/chemsearch/marvin/MolStructure.jsp?monomerid=546443

> <Link to Ligand-Target Pair in BindingDB>
http://www.bindingdb.org/jsp/dbsearch/PrimarySearch_ki.jsp?energyterm=kJ/mole&tag=pol&polymerid=4676&target=DNA+repair+protein+RAD51+homolog+1&column=ki&startPg=0&Increment=50&submit=Search

> <Link to Ligand-Target Pair in BindingDB>
http://www.bindingdb.org/jsp/dbsearch/PrimarySearch_ki.jsp?energyterm=kJ/mole&tag=r21&monomerid=546443&enzyme=DNA+repair+protein+RAD51+homolog+1&column=ki&startPg=0&Increment=50&submit=Search

> <Ligand HET ID in PDB>


> <PDB ID(s) for Ligand-Target Complex>


> <PubChem CID of Ligand>
137408603

> <PubChem SID of Ligand>
469681139

> <ChEBI ID of Ligand>


> <ChEMBL ID of Ligand>


> <DrugBank ID of Ligand>


> <IUPHAR_GRAC ID of Ligand>


> <KEGG ID of Ligand>


> <ZINC ID of Ligand>


> <Number of Protein Chains in Target (bigger than 1 implies a multichain complex)>
1

> <BindingDB Target Chain Sequence>
MAMQMQLEANADTSVEEESFGPQPISRLEQCGINANDVKKLEEAGFHTVEAVAYAPKKELINIKGISEAKADKILAEAAKLVPMGFTTATEFHQRRSEIIQITTGSKELDKLLQGGIETGSITEMFGEFRTGKTQICHTLAVTCQLPIDRGGGEGKAMYIDTEGTFRPERLLAVAERYGLSGSDVLDNVAYARAFNTDHQTQLLYQASAMMVESRYALLIVDSATALYRTDYSGRGELSARQMHLARFLRMLLRLADEFGVAVVITNQVVAQVDGAAMFAADPKKPIGGNIIAHASTTRLYLRKGRGETRICKIYDSPCLPEAEAMFAINADGVGDAKD

> <PDB ID(s) of Target Chain>
1N0W,5JZC,5NP7,5NWL,8BQ2,8BR2,8BSC

> <UniProt (SwissProt) Recommended Name of Target Chain>
DNA repair protein RAD51 homolog 1

> <UniProt (SwissProt) Entry Name of Target Chain>
RAD51_HUMAN

> <UniProt (SwissProt) Primary ID of Target Chain>
Q06609

> <UniProt (SwissProt) Secondary ID(s) of Target Chain>
B0FXP0 B2R8T6 Q6FHX9 Q6ZNA8 Q9BV60

> <UniProt (SwissProt) Alternative ID(s) of Target Chain>


> <UniProt (TrEMBL) Submitted Name of Target Chain>


> <UniProt (TrEMBL) Entry Name of Target Chain>


> <UniProt (TrEMBL) Primary ID of Target Chain>


> <UniProt (TrEMBL) Secondary ID(s) of Target Chain>


> <UniProt (TrEMBL) Alternative ID(s) of Target Chain>


$$$$
00303001.cdx
  Mrv0541 07212217012D          

 38 40  0  0  0  0            999 V2000
    0.1990    2.0929    0.0000 N   0  0  0  0  0  0  0  0  0  0  0  0
   -0.6260    2.0929    0.0000 C   0  0  0  0  0  0  0  0  0  0  0  0
   -0.8810    1.3082    0.0000 C   0  0  0  0  0  0  0  0  0  0  0  0
   -0.2135    0.8233    0.0000 S   0  0  0  0  0  0  0  0  0  0  0  0
    0.4539    1.3082    0.0000 C   0  0  0  0  0  0  0  0  0  0  0  0
   -1.6779    1.0947    0.0000 C   0  0  0  0  0  0  0  0  0  0  0  0
   -2.2612    1.6781    0.0000 C   0  0  0  0  0  0  0  0  0  0  0  0
   -3.0581    1.4645    0.0000 C   0  0  0  0  0  0  0  0  0  0  0  0
   -3.2716    0.6677    0.0000 C   0  0  0  0  0  0  0  0  0  0  0  0
   -2.6883    0.0843    0.0000 C   0  0  0  0  0  0  0  0  0  0  0  0
   -1.8914    0.2978    0.0000 C   0  0  0  0  0  0  0  0  0  0  0  0
   -4.0685    0.4541    0.0000 N   0  0  0  0  0  0  0  0  0  0  0  0
   -1.3080   -0.2855    0.0000 S   0  0  0  0  0  0  0  0  0  0  0  0
   -1.5215   -1.0824    0.0000 N   0  0  0  0  0  0  0  0  0  0  0  0
   -0.5111   -0.4991    0.0000 O   0  0  0  0  0  0  0  0  0  0  0  0
   -0.7247    0.2978    0.0000 O   0  0  0  0  0  0  0  0  0  0  0  0
   -2.3184   -1.2960    0.0000 C   0  0  0  0  0  0  0  0  0  0  0  0
   -2.5320   -2.0929    0.0000 C   0  0  0  0  0  0  0  0  0  0  0  0
   -2.9018   -0.7126    0.0000 C   0  0  0  0  0  0  0  0  0  0  0  0
   -3.1153   -1.5095    0.0000 C   0  0  0  0  0  0  0  0  0  0  0  0
    1.2508    1.0947    0.0000 C   0  0  0  0  0  0  0  0  0  0  0  0
    1.4643    0.2978    0.0000 C   0  0  0  0  0  0  0  0  0  0  0  0
    2.2612    0.0843    0.0000 C   0  0  0  0  0  0  0  0  0  0  0  0
    2.8446    0.6677    0.0000 C   0  0  0  0  0  0  0  0  0  0  0  0
    2.6311    1.4645    0.0000 C   0  0  0  0  0  0  0  0  0  0  0  0
    1.8342    1.6781    0.0000 C   0  0  0  0  0  0  0  0  0  0  0  0
   -4.6519    1.0375    0.0000 C   0  0  0  0  0  0  0  0  0  0  0  0
    3.6415    0.4541    0.0000 N   0  0  0  0  0  0  0  0  0  0  0  0
    3.8550   -0.3428    0.0000 C   0  0  0  0  0  0  0  0  0  0  0  0
    4.6519   -0.5563    0.0000 O   0  0  0  0  0  0  0  0  0  0  0  0
    3.2716   -0.9261    0.0000 O   0  0  0  0  0  0  0  0  0  0  0  0
    5.2352    0.0271    0.0000 C   0  0  0  0  0  0  0  0  0  0  0  0
    6.0321   -0.1865    0.0000 C   0  0  0  0  0  0  0  0  0  0  0  0
    5.0217    0.8240    0.0000 C   0  0  0  0  0  0  0  0  0  0  0  0
   -5.4488    0.8240    0.0000 C   0  0  0  0  0  0  0  0  0  0  0  0
   -6.0321    1.4073    0.0000 F   0  0  0  0  0  0  0  0  0  0  0  0
   -5.6623    0.0271    0.0000 F   0  0  0  0  0  0  0  0  0  0  0  0
   -5.2352    1.6209    0.0000 F   0  0  0  0  0  0  0  0  0  0  0  0
  1  2  4  0  0  0  0
  2  3  4  0  0  0  0
  3  4  4  0  0  0  0
  4  5  4  0  0  0  0
  5  1  4  0  0  0  0
  3  6  1  0  0  0  0
  6  7  4  0  0  0  0
  7  8  4  0  0  0  0
  8  9  4  0  0  0  0
  9 10  4  0  0  0  0
 10 11  4  0  0  0  0
 11  6  4  0  0  0  0
  9 12  1  0  0  0  0
 12 27  1  0  0  0  0
 11 13  1  0  0  0  0
 13 14  1  0  0  0  0
 13 15  2  0  0  0  0
 16 13  2  0  0  0  0
 14 17  1  0  0  0  0
 17 18  1  0  0  0  0
 17 19  1  0  0  0  0
 17 20  1  0  0  0  0
  5 21  1  0  0  0  0
 21 22  4  0  0  0  0
 22 23  4  0  0  0  0
 23 24  4  0  0  0  0
 24 25  4  0  0  0  0
 25 26  4  0  0  0  0
 26 21  4  0  0  0  0
 24 28  1  0  0  0  0
 28 29  1  0  0  0  0
 29 30  1  0  0  0  0
 29 31  2  0  0  0  0
 30 32  1  0  0  0  0
 32 33  1  0  0  0  0
 32 34  1  0  0  0  0
 27 35  1  0  0  0  0
 35 36  1  0  0  0  0
 35 37  1  0  0  0  0
 35 38  1  0  0  0  0
M  END
> <From>
www.bindingDB.org

> <BindingDB Reactant_set_id>
1155293

> <Ligand InChI>
InChI=1S/C25H29F3N4O4S2/c1-15(2)36-23(33)31-17-8-6-16(7-9-17)22-29-13-20(37-22)19-11-10-18(30-14-25(26,27)28)12-21(19)38(34,35)32-24(3,4)5/h6-13,15,30,32H,14H2,1-5H3,(H,31,33)

> <Ligand InChI Key>
YZCINZOOZBWQFB-UHFFFAOYSA-N

> <BindingDB MonomerID>
546444

> <BindingDB Ligand Name>
US11291655, No I3

> <Target Name>
DNA repair protein RAD51 homolog 1

> <Target Source Organism According to Curator or DataSource>
Homo sapiens

> <Ki (nM)>


> <IC50 (nM)>


> <Kd (nM)>


> <EC50 (nM)>
<5000

> <kon (M-1-s-1)>


> <koff (s-1)>


> <pH>


> <Temp C>


> <Curation/DataSource>
US Patent

> <Article DOI>


> <BindingDB Entry DOI>
10.7270/Q2NG4TV0

> <PMID>


> <PubChem AID>
aid1806421

> <Patent Number>
US11291655

> <Authors>
Castro, AC; McComas, CC; Vacca, J

> <Date of publication>
4/5/2022

> <Date in BindingDB>
7/21/2022

> <Institution>
Cyteir Therapeutics, Inc.

> <Link to Ligand in BindingDB>
http://www.bindingdb.org/bind/chemsearch/marvin/MolStructure.jsp?monomerid=546444

> <Link to Ligand-Target Pair in BindingDB>
http://www.bindingdb.org/jsp/dbsearch/PrimarySearch_ki.jsp?energyterm=kJ/mole&tag=pol&polymerid=4676&target=DNA+repair+protein+RAD51+homolog+1&column=ki&startPg=0&Increment=50&submit=Search

> <Link to Ligand-Target Pair in BindingDB>
http://www.bindingdb.org/jsp/dbsearch/PrimarySearch_ki.jsp?energyterm=kJ/mole&tag=r21&monomerid=546444&enzyme=DNA+repair+protein+RAD51+homolog+1&column=ki&startPg=0&Increment=50&submit=Search

> <Ligand HET ID in PDB>


> <PDB ID(s) for Ligand-Target Complex>


> <PubChem CID of Ligand>
137408629

> <PubChem SID of Ligand>
469681140

> <ChEBI ID of Ligand>


> <ChEMBL ID of Ligand>


> <DrugBank ID of Ligand>


> <IUPHAR_GRAC ID of Ligand>


> <KEGG ID of Ligand>


> <ZINC ID of Ligand>


> <Number of Protein Chains in Target (bigger than 1 implies a multichain complex)>
1

> <BindingDB Target Chain Sequence>
MAMQMQLEANADTSVEEESFGPQPISRLEQCGINANDVKKLEEAGFHTVEAVAYAPKKELINIKGISEAKADKILAEAAKLVPMGFTTATEFHQRRSEIIQITTGSKELDKLLQGGIETGSITEMFGEFRTGKTQICHTLAVTCQLPIDRGGGEGKAMYIDTEGTFRPERLLAVAERYGLSGSDVLDNVAYARAFNTDHQTQLLYQASAMMVESRYALLIVDSATALYRTDYSGRGELSARQMHLARFLRMLLRLADEFGVAVVITNQVVAQVDGAAMFAADPKKPIGGNIIAHASTTRLYLRKGRGETRICKIYDSPCLPEAEAMFAINADGVGDAKD

> <PDB ID(s) of Target Chain>
1N0W,5JZC,5NP7,5NWL,8BQ2,8BR2,8BSC

> <UniProt (SwissProt) Recommended Name of Target Chain>
DNA repair protein RAD51 homolog 1

> <UniProt (SwissProt) Entry Name of Target Chain>
RAD51_HUMAN

> <UniProt (SwissProt) Primary ID of Target Chain>
Q06609

> <UniProt (SwissProt) Secondary ID(s) of Target Chain>
B0FXP0 B2R8T6 Q6FHX9 Q6ZNA8 Q9BV60

> <UniProt (SwissProt) Alternative ID(s) of Target Chain>


> <UniProt (TrEMBL) Submitted Name of Target Chain>


> <UniProt (TrEMBL) Entry Name of Target Chain>


> <UniProt (TrEMBL) Primary ID of Target Chain>


> <UniProt (TrEMBL) Secondary ID(s) of Target Chain>


> <UniProt (TrEMBL) Alternative ID(s) of Target Chain>


$$$$
00304001.cdx
  Mrv0541 07212217012D          

 38 41  0  0  0  0            999 V2000
   -0.0927    2.0570    0.0000 N   0  0  0  0  0  0  0  0  0  0  0  0
   -0.9177    2.0570    0.0000 C   0  0  0  0  0  0  0  0  0  0  0  0
   -1.1726    1.2724    0.0000 C   0  0  0  0  0  0  0  0  0  0  0  0
   -0.5052    0.7875    0.0000 S   0  0  0  0  0  0  0  0  0  0  0  0
    0.1622    1.2724    0.0000 C   0  0  0  0  0  0  0  0  0  0  0  0
   -1.9695    1.0589    0.0000 C   0  0  0  0  0  0  0  0  0  0  0  0
   -2.5529    1.6423    0.0000 C   0  0  0  0  0  0  0  0  0  0  0  0
   -3.3498    1.4287    0.0000 C   0  0  0  0  0  0  0  0  0  0  0  0
   -3.5633    0.6318    0.0000 C   0  0  0  0  0  0  0  0  0  0  0  0
   -2.9799    0.0485    0.0000 C   0  0  0  0  0  0  0  0  0  0  0  0
   -2.1831    0.2620    0.0000 C   0  0  0  0  0  0  0  0  0  0  0  0
   -4.3602    0.4183    0.0000 N   0  0  0  0  0  0  0  0  0  0  0  0
   -1.5997   -0.3214    0.0000 S   0  0  0  0  0  0  0  0  0  0  0  0
   -1.8132   -1.1182    0.0000 N   0  0  0  0  0  0  0  0  0  0  0  0
   -0.8028   -0.5349    0.0000 O   0  0  0  0  0  0  0  0  0  0  0  0
   -1.0163    0.2620    0.0000 O   0  0  0  0  0  0  0  0  0  0  0  0
   -2.6101   -1.3318    0.0000 C   0  0  0  0  0  0  0  0  0  0  0  0
   -2.8236   -2.1287    0.0000 C   0  0  0  0  0  0  0  0  0  0  0  0
   -3.1935   -0.7484    0.0000 C   0  0  0  0  0  0  0  0  0  0  0  0
   -3.4070   -1.5453    0.0000 C   0  0  0  0  0  0  0  0  0  0  0  0
    0.9591    1.0589    0.0000 C   0  0  0  0  0  0  0  0  0  0  0  0
    1.1726    0.2620    0.0000 C   0  0  0  0  0  0  0  0  0  0  0  0
    1.9695    0.0485    0.0000 C   0  0  0  0  0  0  0  0  0  0  0  0
    2.5529    0.6318    0.0000 C   0  0  0  0  0  0  0  0  0  0  0  0
    2.3394    1.4287    0.0000 C   0  0  0  0  0  0  0  0  0  0  0  0
    1.5425    1.6423    0.0000 C   0  0  0  0  0  0  0  0  0  0  0  0
   -4.9436    1.0017    0.0000 C   0  0  0  0  0  0  0  0  0  0  0  0
    3.3498    0.4183    0.0000 N   0  0  0  0  0  0  0  0  0  0  0  0
    3.5633   -0.3786    0.0000 C   0  0  0  0  0  0  0  0  0  0  0  0
    4.3602   -0.5921    0.0000 O   0  0  0  0  0  0  0  0  0  0  0  0
    2.9799   -0.9619    0.0000 O   0  0  0  0  0  0  0  0  0  0  0  0
    4.9436   -0.0087    0.0000 C   0  0  0  0  0  0  0  0  0  0  0  0
    5.7405   -0.2223    0.0000 C   0  0  0  0  0  0  0  0  0  0  0  0
    4.7300    0.7882    0.0000 C   0  0  0  0  0  0  0  0  0  0  0  0
   -5.7405    0.7882    0.0000 C   0  0  0  0  0  0  0  0  0  0  0  0
   -4.2291    1.4142    0.0000 C   0  0  0  0  0  0  0  0  0  0  0  0
   -4.6416    2.1287    0.0000 O   0  0  0  0  0  0  0  0  0  0  0  0
   -5.3561    1.7162    0.0000 C   0  0  0  0  0  0  0  0  0  0  0  0
  1  2  4  0  0  0  0
  2  3  4  0  0  0  0
  3  4  4  0  0  0  0
  4  5  4  0  0  0  0
  5  1  4  0  0  0  0
  3  6  1  0  0  0  0
  6  7  4  0  0  0  0
  7  8  4  0  0  0  0
  8  9  4  0  0  0  0
  9 10  4  0  0  0  0
 10 11  4  0  0  0  0
 11  6  4  0  0  0  0
  9 12  1  0  0  0  0
 12 27  1  0  0  0  0
 11 13  1  0  0  0  0
 13 14  1  0  0  0  0
 13 15  2  0  0  0  0
 16 13  2  0  0  0  0
 14 17  1  0  0  0  0
 17 18  1  0  0  0  0
 17 19  1  0  0  0  0
 17 20  1  0  0  0  0
  5 21  1  0  0  0  0
 21 22  4  0  0  0  0
 22 23  4  0  0  0  0
 23 24  4  0  0  0  0
 24 25  4  0  0  0  0
 25 26  4  0  0  0  0
 26 21  4  0  0  0  0
 24 28  1  0  0  0  0
 28 29  1  0  0  0  0
 29 30  1  0  0  0  0
 29 31  2  0  0  0  0
 30 32  1  0  0  0  0
 32 33  1  0  0  0  0
 32 34  1  0  0  0  0
 27 35  1  0  0  0  0
 27 36  1  0  0  0  0
 36 37  1  0  0  0  0
 37 38  1  0  0  0  0
 38 27  1  0  0  0  0
M  END
> <From>
www.bindingDB.org

> <BindingDB Reactant_set_id>
1155294

> <Ligand InChI>
InChI=1S/C27H34N4O5S2/c1-17(2)36-25(32)29-19-9-7-18(8-10-19)24-28-14-22(37-24)21-12-11-20(30-27(6)15-35-16-27)13-23(21)38(33,34)31-26(3,4)5/h7-14,17,30-31H,15-16H2,1-6H3,(H,29,32)

> <Ligand InChI Key>
VVQKJNJFMLPAIS-UHFFFAOYSA-N

> <BindingDB MonomerID>
546445

> <BindingDB Ligand Name>
US11291655, No I4

> <Target Name>
DNA repair protein RAD51 homolog 1

> <Target Source Organism According to Curator or DataSource>
Homo sapiens

> <Ki (nM)>


> <IC50 (nM)>


> <Kd (nM)>


> <EC50 (nM)>
<5000

> <kon (M-1-s-1)>


> <koff (s-1)>


> <pH>


> <Temp C>


> <Curation/DataSource>
US Patent

> <Article DOI>


> <BindingDB Entry DOI>
10.7270/Q2NG4TV0

> <PMID>


> <PubChem AID>
aid1806421

> <Patent Number>
US11291655

> <Authors>
Castro, AC; McComas, CC; Vacca, J

> <Date of publication>
4/5/2022

> <Date in BindingDB>
7/21/2022

> <Institution>
Cyteir Therapeutics, Inc.

> <Link to Ligand in BindingDB>
http://www.bindingdb.org/bind/chemsearch/marvin/MolStructure.jsp?monomerid=546445

> <Link to Ligand-Target Pair in BindingDB>
http://www.bindingdb.org/jsp/dbsearch/PrimarySearch_ki.jsp?energyterm=kJ/mole&tag=pol&polymerid=4676&target=DNA+repair+protein+RAD51+homolog+1&column=ki&startPg=0&Increment=50&submit=Search

> <Link to Ligand-Target Pair in BindingDB>
http://www.bindingdb.org/jsp/dbsearch/PrimarySearch_ki.jsp?energyterm=kJ/mole&tag=r21&monomerid=546445&enzyme=DNA+repair+protein+RAD51+homolog+1&column=ki&startPg=0&Increment=50&submit=Search

> <Ligand HET ID in PDB>


> <PDB ID(s) for Ligand-Target Complex>


> <PubChem CID of Ligand>
137411840

> <PubChem SID of Ligand>
469681141

> <ChEBI ID of Ligand>


> <ChEMBL ID of Ligand>


> <DrugBank ID of Ligand>


> <IUPHAR_GRAC ID of Ligand>


> <KEGG ID of Ligand>


> <ZINC ID of Ligand>


> <Number of Protein Chains in Target (bigger than 1 implies a multichain complex)>
1

> <BindingDB Target Chain Sequence>
MAMQMQLEANADTSVEEESFGPQPISRLEQCGINANDVKKLEEAGFHTVEAVAYAPKKELINIKGISEAKADKILAEAAKLVPMGFTTATEFHQRRSEIIQITTGSKELDKLLQGGIETGSITEMFGEFRTGKTQICHTLAVTCQLPIDRGGGEGKAMYIDTEGTFRPERLLAVAERYGLSGSDVLDNVAYARAFNTDHQTQLLYQASAMMVESRYALLIVDSATALYRTDYSGRGELSARQMHLARFLRMLLRLADEFGVAVVITNQVVAQVDGAAMFAADPKKPIGGNIIAHASTTRLYLRKGRGETRICKIYDSPCLPEAEAMFAINADGVGDAKD

> <PDB ID(s) of Target Chain>
1N0W,5JZC,5NP7,5NWL,8BQ2,8BR2,8BSC

> <UniProt (SwissProt) Recommended Name of Target Chain>
DNA repair protein RAD51 homolog 1

> <UniProt (SwissProt) Entry Name of Target Chain>
RAD51_HUMAN

> <UniProt (SwissProt) Primary ID of Target Chain>
Q06609

> <UniProt (SwissProt) Secondary ID(s) of Target Chain>
B0FXP0 B2R8T6 Q6FHX9 Q6ZNA8 Q9BV60

> <UniProt (SwissProt) Alternative ID(s) of Target Chain>


> <UniProt (TrEMBL) Submitted Name of Target Chain>


> <UniProt (TrEMBL) Entry Name of Target Chain>


> <UniProt (TrEMBL) Primary ID of Target Chain>


> <UniProt (TrEMBL) Secondary ID(s) of Target Chain>


> <UniProt (TrEMBL) Alternative ID(s) of Target Chain>


$$$$
00305001.cdx
  Mrv0541 07212217012D          

 36 38  0  0  0  0            999 V2000
   -0.0927    2.0929    0.0000 N   0  0  0  0  0  0  0  0  0  0  0  0
   -0.9177    2.0929    0.0000 C   0  0  0  0  0  0  0  0  0  0  0  0
   -1.1726    1.3082    0.0000 C   0  0  0  0  0  0  0  0  0  0  0  0
   -0.5052    0.8233    0.0000 S   0  0  0  0  0  0  0  0  0  0  0  0
    0.1622    1.3082    0.0000 C   0  0  0  0  0  0  0  0  0  0  0  0
   -1.9695    1.0947    0.0000 C   0  0  0  0  0  0  0  0  0  0  0  0
   -2.5529    1.6781    0.0000 C   0  0  0  0  0  0  0  0  0  0  0  0
   -3.3498    1.4645    0.0000 C   0  0  0  0  0  0  0  0  0  0  0  0
   -3.5633    0.6677    0.0000 C   0  0  0  0  0  0  0  0  0  0  0  0
   -2.9799    0.0843    0.0000 C   0  0  0  0  0  0  0  0  0  0  0  0
   -2.1831    0.2978    0.0000 C   0  0  0  0  0  0  0  0  0  0  0  0
   -4.3602    0.4541    0.0000 C   0  0  0  0  0  0  0  0  0  0  0  0
   -1.5997   -0.2855    0.0000 S   0  0  0  0  0  0  0  0  0  0  0  0
   -1.8132   -1.0824    0.0000 N   0  0  0  0  0  0  0  0  0  0  0  0
   -0.8028   -0.4991    0.0000 O   0  0  0  0  0  0  0  0  0  0  0  0
   -1.0163    0.2978    0.0000 O   0  0  0  0  0  0  0  0  0  0  0  0
   -2.6101   -1.2960    0.0000 C   0  0  0  0  0  0  0  0  0  0  0  0
   -2.8236   -2.0929    0.0000 C   0  0  0  0  0  0  0  0  0  0  0  0
   -3.1935   -0.7126    0.0000 C   0  0  0  0  0  0  0  0  0  0  0  0
   -3.4070   -1.5095    0.0000 C   0  0  0  0  0  0  0  0  0  0  0  0
    0.9591    1.0947    0.0000 C   0  0  0  0  0  0  0  0  0  0  0  0
    1.1726    0.2978    0.0000 C   0  0  0  0  0  0  0  0  0  0  0  0
    1.9695    0.0843    0.0000 C   0  0  0  0  0  0  0  0  0  0  0  0
    2.5529    0.6677    0.0000 C   0  0  0  0  0  0  0  0  0  0  0  0
    2.3394    1.4645    0.0000 C   0  0  0  0  0  0  0  0  0  0  0  0
    1.5425    1.6781    0.0000 C   0  0  0  0  0  0  0  0  0  0  0  0
   -4.9436    1.0375    0.0000 N   0  0  0  0  0  0  0  0  0  0  0  0
    3.3498    0.4541    0.0000 N   0  0  0  0  0  0  0  0  0  0  0  0
    3.5633   -0.3428    0.0000 C   0  0  0  0  0  0  0  0  0  0  0  0
    4.3602   -0.5563    0.0000 O   0  0  0  0  0  0  0  0  0  0  0  0
    2.9799   -0.9261    0.0000 O   0  0  0  0  0  0  0  0  0  0  0  0
    4.9436    0.0271    0.0000 C   0  0  0  0  0  0  0  0  0  0  0  0
    5.7405   -0.1865    0.0000 C   0  0  0  0  0  0  0  0  0  0  0  0
    4.7300    0.8240    0.0000 C   0  0  0  0  0  0  0  0  0  0  0  0
   -5.7405    0.8240    0.0000 C   0  0  0  0  0  0  0  0  0  0  0  0
   -4.5737   -0.3428    0.0000 O   0  0  0  0  0  0  0  0  0  0  0  0
  1  2  4  0  0  0  0
  2  3  4  0  0  0  0
  3  4  4  0  0  0  0
  4  5  4  0  0  0  0
  5  1  4  0  0  0  0
  3  6  1  0  0  0  0
  6  7  4  0  0  0  0
  7  8  4  0  0  0  0
  8  9  4  0  0  0  0
  9 10  4  0  0  0  0
 10 11  4  0  0  0  0
 11  6  4  0  0  0  0
  9 12  1  0  0  0  0
 12 27  1  0  0  0  0
 11 13  1  0  0  0  0
 13 14  1  0  0  0  0
 13 15  2  0  0  0  0
 16 13  2  0  0  0  0
 14 17  1  0  0  0  0
 17 18  1  0  0  0  0
 17 19  1  0  0  0  0
 17 20  1  0  0  0  0
  5 21  1  0  0  0  0
 21 22  4  0  0  0  0
 22 23  4  0  0  0  0
 23 24  4  0  0  0  0
 24 25  4  0  0  0  0
 25 26  4  0  0  0  0
 26 21  4  0  0  0  0
 24 28  1  0  0  0  0
 28 29  1  0  0  0  0
 29 30  1  0  0  0  0
 29 31  2  0  0  0  0
 30 32  1  0  0  0  0
 32 33  1  0  0  0  0
 32 34  1  0  0  0  0
 27 35  1  0  0  0  0
 12 36  2  0  0  0  0
M  END
> <From>
www.bindingDB.org

> <BindingDB Reactant_set_id>
1155295

> <Ligand InChI>
InChI=1S/C25H30N4O5S2/c1-15(2)34-24(31)28-18-10-7-16(8-11-18)23-27-14-20(35-23)19-12-9-17(22(30)26-6)13-21(19)36(32,33)29-25(3,4)5/h7-15,29H,1-6H3,(H,26,30)(H,28,31)

> <Ligand InChI Key>
BELBORQJJVIQOV-UHFFFAOYSA-N

> <BindingDB MonomerID>
546446

> <BindingDB Ligand Name>
US11291655, No I5

> <Target Name>
DNA repair protein RAD51 homolog 1

> <Target Source Organism According to Curator or DataSource>
Homo sapiens

> <Ki (nM)>


> <IC50 (nM)>


> <Kd (nM)>


> <EC50 (nM)>
<5000

> <kon (M-1-s-1)>


> <koff (s-1)>


> <pH>


> <Temp C>


> <Curation/DataSource>
US Patent

> <Article DOI>


> <BindingDB Entry DOI>
10.7270/Q2NG4TV0

> <PMID>


> <PubChem AID>
aid1806421

> <Patent Number>
US11291655

> <Authors>
Castro, AC; McComas, CC; Vacca, J

> <Date of publication>
4/5/2022

> <Date in BindingDB>
7/21/2022

> <Institution>
Cyteir Therapeutics, Inc.

> <Link to Ligand in BindingDB>
http://www.bindingdb.org/bind/chemsearch/marvin/MolStructure.jsp?monomerid=546446

> <Link to Ligand-Target Pair in BindingDB>
http://www.bindingdb.org/jsp/dbsearch/PrimarySearch_ki.jsp?energyterm=kJ/mole&tag=pol&polymerid=4676&target=DNA+repair+protein+RAD51+homolog+1&column=ki&startPg=0&Increment=50&submit=Search

> <Link to Ligand-Target Pair in BindingDB>
http://www.bindingdb.org/jsp/dbsearch/PrimarySearch_ki.jsp?energyterm=kJ/mole&tag=r21&monomerid=546446&enzyme=DNA+repair+protein+RAD51+homolog+1&column=ki&startPg=0&Increment=50&submit=Search

> <Ligand HET ID in PDB>


> <PDB ID(s) for Ligand-Target Complex>


> <PubChem CID of Ligand>
137411806

> <PubChem SID of Ligand>
469681142

> <ChEBI ID of Ligand>


> <ChEMBL ID of Ligand>


> <DrugBank ID of Ligand>


> <IUPHAR_GRAC ID of Ligand>


> <KEGG ID of Ligand>


> <ZINC ID of Ligand>


> <Number of Protein Chains in Target (bigger than 1 implies a multichain complex)>
1

> <BindingDB Target Chain Sequence>
MAMQMQLEANADTSVEEESFGPQPISRLEQCGINANDVKKLEEAGFHTVEAVAYAPKKELINIKGISEAKADKILAEAAKLVPMGFTTATEFHQRRSEIIQITTGSKELDKLLQGGIETGSITEMFGEFRTGKTQICHTLAVTCQLPIDRGGGEGKAMYIDTEGTFRPERLLAVAERYGLSGSDVLDNVAYARAFNTDHQTQLLYQASAMMVESRYALLIVDSATALYRTDYSGRGELSARQMHLARFLRMLLRLADEFGVAVVITNQVVAQVDGAAMFAADPKKPIGGNIIAHASTTRLYLRKGRGETRICKIYDSPCLPEAEAMFAINADGVGDAKD

> <PDB ID(s) of Target Chain>
1N0W,5JZC,5NP7,5NWL,8BQ2,8BR2,8BSC

> <UniProt (SwissProt) Recommended Name of Target Chain>
DNA repair protein RAD51 homolog 1

> <UniProt (SwissProt) Entry Name of Target Chain>
RAD51_HUMAN

> <UniProt (SwissProt) Primary ID of Target Chain>
Q06609

> <UniProt (SwissProt) Secondary ID(s) of Target Chain>
B0FXP0 B2R8T6 Q6FHX9 Q6ZNA8 Q9BV60

> <UniProt (SwissProt) Alternative ID(s) of Target Chain>


> <UniProt (TrEMBL) Submitted Name of Target Chain>


> <UniProt (TrEMBL) Entry Name of Target Chain>


> <UniProt (TrEMBL) Primary ID of Target Chain>


> <UniProt (TrEMBL) Secondary ID(s) of Target Chain>


> <UniProt (TrEMBL) Alternative ID(s) of Target Chain>


$$$$
00231001.cdx
  Mrv0541 07212217012D          

 38 40  0  0  0  0            999 V2000
   -0.0684    2.0929    0.0000 N   0  0  0  0  0  0  0  0  0  0  0  0
   -0.8934    2.0929    0.0000 C   0  0  0  0  0  0  0  0  0  0  0  0
   -1.1483    1.3082    0.0000 C   0  0  0  0  0  0  0  0  0  0  0  0
   -0.4809    0.8233    0.0000 S   0  0  0  0  0  0  0  0  0  0  0  0
    0.1866    1.3082    0.0000 C   0  0  0  0  0  0  0  0  0  0  0  0
   -1.9452    1.0947    0.0000 C   0  0  0  0  0  0  0  0  0  0  0  0
   -2.5286    1.6781    0.0000 C   0  0  0  0  0  0  0  0  0  0  0  0
   -3.3254    1.4645    0.0000 C   0  0  0  0  0  0  0  0  0  0  0  0
   -3.5390    0.6677    0.0000 C   0  0  0  0  0  0  0  0  0  0  0  0
   -2.9556    0.0843    0.0000 C   0  0  0  0  0  0  0  0  0  0  0  0
   -2.1587    0.2978    0.0000 C   0  0  0  0  0  0  0  0  0  0  0  0
    0.9835    1.0947    0.0000 C   0  0  0  0  0  0  0  0  0  0  0  0
    1.1970    0.2978    0.0000 C   0  0  0  0  0  0  0  0  0  0  0  0
    1.9939    0.0843    0.0000 C   0  0  0  0  0  0  0  0  0  0  0  0
    2.5772    0.6677    0.0000 C   0  0  0  0  0  0  0  0  0  0  0  0
    2.3637    1.4645    0.0000 C   0  0  0  0  0  0  0  0  0  0  0  0
    1.5668    1.6781    0.0000 C   0  0  0  0  0  0  0  0  0  0  0  0
    3.3741    0.4541    0.0000 N   0  0  0  0  0  0  0  0  0  0  0  0
    3.5877   -0.3428    0.0000 C   0  0  0  0  0  0  0  0  0  0  0  0
    4.3845   -0.5563    0.0000 N   0  0  0  0  0  0  0  0  0  0  0  0
    3.0043   -0.9261    0.0000 O   0  0  0  0  0  0  0  0  0  0  0  0
    4.9679    0.0271    0.0000 C   0  0  0  0  0  0  0  0  0  0  0  0
    5.7648   -0.1865    0.0000 C   0  0  0  0  0  0  0  0  0  0  0  0
    4.7544    0.8240    0.0000 C   0  0  0  0  0  0  0  0  0  0  0  0
   -1.5754   -0.2855    0.0000 S   0  0  0  0  0  0  0  0  0  0  0  0
   -1.7889   -1.0824    0.0000 N   0  0  0  0  0  0  0  0  0  0  0  0
   -0.8603   -0.6980    0.0000 O   0  0  0  0  0  0  0  0  0  0  0  0
   -0.8603    0.1270    0.0000 O   0  0  0  0  0  0  0  0  0  0  0  0
   -2.5858   -1.2960    0.0000 C   0  0  0  0  0  0  0  0  0  0  0  0
   -2.7993   -2.0929    0.0000 C   0  0  0  0  0  0  0  0  0  0  0  0
   -3.1691   -0.7126    0.0000 C   0  0  0  0  0  0  0  0  0  0  0  0
   -3.3827   -1.5095    0.0000 C   0  0  0  0  0  0  0  0  0  0  0  0
   -4.3359    0.4541    0.0000 N   0  0  0  0  0  0  0  0  0  0  0  0
   -5.0503    0.8666    0.0000 S   0  0  0  0  0  0  0  0  0  0  0  0
   -4.3359   -0.3709    0.0000 C   0  0  0  0  0  0  0  0  0  0  0  0
   -5.7648    0.4541    0.0000 C   0  0  0  0  0  0  0  0  0  0  0  0
   -4.6378    1.5811    0.0000 O   0  0  0  0  0  0  0  0  0  0  0  0
   -5.4628    1.5811    0.0000 O   0  0  0  0  0  0  0  0  0  0  0  0
  1  2  4  0  0  0  0
  2  3  4  0  0  0  0
  3  4  4  0  0  0  0
  4  5  4  0  0  0  0
  5  1  4  0  0  0  0
  3  6  1  0  0  0  0
  6  7  4  0  0  0  0
  7  8  4  0  0  0  0
  8  9  4  0  0  0  0
  9 10  4  0  0  0  0
 10 11  4  0  0  0  0
 11  6  4  0  0  0  0
  5 12  1  0  0  0  0
 12 13  4  0  0  0  0
 13 14  4  0  0  0  0
 14 15  4  0  0  0  0
 15 16  4  0  0  0  0
 16 17  4  0  0  0  0
 17 12  4  0  0  0  0
  9 33  1  0  0  0  0
 15 18  1  0  0  0  0
 18 19  1  0  0  0  0
 19 20  1  0  0  0  0
 19 21  2  0  0  0  0
 20 22  1  0  0  0  0
 22 23  1  0  0  0  0
 22 24  1  0  0  0  0
 11 25  1  0  0  0  0
 25 26  1  0  0  0  0
 25 27  2  0  0  0  0
 28 25  2  0  0  0  0
 26 29  1  0  0  0  0
 29 30  1  0  0  0  0
 29 31  1  0  0  0  0
 29 32  1  0  0  0  0
 33 34  1  0  0  0  0
 33 35  1  0  0  0  0
 34 36  1  0  0  0  0
 34 37  2  0  0  0  0
 38 34  2  0  0  0  0
M  END
> <From>
www.bindingDB.org

> <BindingDB Reactant_set_id>
1155296

> <Ligand InChI>
InChI=1S/C25H33N5O5S3/c1-16(2)27-24(31)28-18-10-8-17(9-11-18)23-26-15-21(36-23)20-13-12-19(30(6)37(7,32)33)14-22(20)38(34,35)29-25(3,4)5/h8-16,29H,1-7H3,(H2,27,28,31)

> <Ligand InChI Key>
IDQHLDQWPRXUII-UHFFFAOYSA-N

> <BindingDB MonomerID>
546372

> <BindingDB Ligand Name>
US11291655, No I7

> <Target Name>
DNA repair protein RAD51 homolog 1

> <Target Source Organism According to Curator or DataSource>
Homo sapiens

> <Ki (nM)>


> <IC50 (nM)>


> <Kd (nM)>


> <EC50 (nM)>
<5000

> <kon (M-1-s-1)>


> <koff (s-1)>


> <pH>


> <Temp C>


> <Curation/DataSource>
US Patent

> <Article DOI>


> <BindingDB Entry DOI>
10.7270/Q2NG4TV0

> <PMID>


> <PubChem AID>
aid1806421

> <Patent Number>
US11291655

> <Authors>
Castro, AC; McComas, CC; Vacca, J

> <Date of publication>
4/5/2022

> <Date in BindingDB>
7/21/2022

> <Institution>
Cyteir Therapeutics, Inc.

> <Link to Ligand in BindingDB>
http://www.bindingdb.org/bind/chemsearch/marvin/MolStructure.jsp?monomerid=546372

> <Link to Ligand-Target Pair in BindingDB>
http://www.bindingdb.org/jsp/dbsearch/PrimarySearch_ki.jsp?energyterm=kJ/mole&tag=pol&polymerid=4676&target=DNA+repair+protein+RAD51+homolog+1&column=ki&startPg=0&Increment=50&submit=Search

> <Link to Ligand-Target Pair in BindingDB>
http://www.bindingdb.org/jsp/dbsearch/PrimarySearch_ki.jsp?energyterm=kJ/mole&tag=r21&monomerid=546372&enzyme=DNA+repair+protein+RAD51+homolog+1&column=ki&startPg=0&Increment=50&submit=Search

> <Ligand HET ID in PDB>


> <PDB ID(s) for Ligand-Target Complex>


> <PubChem CID of Ligand>
137408574

> <PubChem SID of Ligand>
469681068

> <ChEBI ID of Ligand>


> <ChEMBL ID of Ligand>


> <DrugBank ID of Ligand>


> <IUPHAR_GRAC ID of Ligand>


> <KEGG ID of Ligand>


> <ZINC ID of Ligand>


> <Number of Protein Chains in Target (bigger than 1 implies a multichain complex)>
1

> <BindingDB Target Chain Sequence>
MAMQMQLEANADTSVEEESFGPQPISRLEQCGINANDVKKLEEAGFHTVEAVAYAPKKELINIKGISEAKADKILAEAAKLVPMGFTTATEFHQRRSEIIQITTGSKELDKLLQGGIETGSITEMFGEFRTGKTQICHTLAVTCQLPIDRGGGEGKAMYIDTEGTFRPERLLAVAERYGLSGSDVLDNVAYARAFNTDHQTQLLYQASAMMVESRYALLIVDSATALYRTDYSGRGELSARQMHLARFLRMLLRLADEFGVAVVITNQVVAQVDGAAMFAADPKKPIGGNIIAHASTTRLYLRKGRGETRICKIYDSPCLPEAEAMFAINADGVGDAKD

> <PDB ID(s) of Target Chain>
1N0W,5JZC,5NP7,5NWL,8BQ2,8BR2,8BSC

> <UniProt (SwissProt) Recommended Name of Target Chain>
DNA repair protein RAD51 homolog 1

> <UniProt (SwissProt) Entry Name of Target Chain>
RAD51_HUMAN

> <UniProt (SwissProt) Primary ID of Target Chain>
Q06609

> <UniProt (SwissProt) Secondary ID(s) of Target Chain>
B0FXP0 B2R8T6 Q6FHX9 Q6ZNA8 Q9BV60

> <UniProt (SwissProt) Alternative ID(s) of Target Chain>


> <UniProt (TrEMBL) Submitted Name of Target Chain>


> <UniProt (TrEMBL) Entry Name of Target Chain>


> <UniProt (TrEMBL) Primary ID of Target Chain>


> <UniProt (TrEMBL) Secondary ID(s) of Target Chain>


> <UniProt (TrEMBL) Alternative ID(s) of Target Chain>


$$$$
00307001.cdx
  Mrv0541 07212217012D          

 34 36  0  0  0  0            999 V2000
   -0.4912    2.0929    0.0000 N   0  0  0  0  0  0  0  0  0  0  0  0
   -1.3162    2.0929    0.0000 C   0  0  0  0  0  0  0  0  0  0  0  0
   -1.5711    1.3082    0.0000 C   0  0  0  0  0  0  0  0  0  0  0  0
   -0.9037    0.8233    0.0000 S   0  0  0  0  0  0  0  0  0  0  0  0
   -0.2362    1.3082    0.0000 C   0  0  0  0  0  0  0  0  0  0  0  0
   -2.3680    1.0947    0.0000 C   0  0  0  0  0  0  0  0  0  0  0  0
   -2.9513    1.6781    0.0000 C   0  0  0  0  0  0  0  0  0  0  0  0
   -3.7482    1.4645    0.0000 C   0  0  0  0  0  0  0  0  0  0  0  0
   -3.9618    0.6677    0.0000 C   0  0  0  0  0  0  0  0  0  0  0  0
   -3.3784    0.0843    0.0000 C   0  0  0  0  0  0  0  0  0  0  0  0
   -2.5815    0.2978    0.0000 C   0  0  0  0  0  0  0  0  0  0  0  0
   -4.7586    0.4541    0.0000 C   0  0  0  0  0  0  0  0  0  0  0  0
   -1.9981   -0.2855    0.0000 S   0  0  0  0  0  0  0  0  0  0  0  0
   -2.2117   -1.0824    0.0000 N   0  0  0  0  0  0  0  0  0  0  0  0
   -1.2013   -0.4991    0.0000 O   0  0  0  0  0  0  0  0  0  0  0  0
   -1.4148    0.2978    0.0000 O   0  0  0  0  0  0  0  0  0  0  0  0
   -3.0086   -1.2960    0.0000 C   0  0  0  0  0  0  0  0  0  0  0  0
   -3.2221   -2.0929    0.0000 C   0  0  0  0  0  0  0  0  0  0  0  0
   -3.5919   -0.7126    0.0000 C   0  0  0  0  0  0  0  0  0  0  0  0
   -3.8054   -1.5095    0.0000 C   0  0  0  0  0  0  0  0  0  0  0  0
    0.5607    1.0947    0.0000 C   0  0  0  0  0  0  0  0  0  0  0  0
    0.7742    0.2978    0.0000 C   0  0  0  0  0  0  0  0  0  0  0  0
    1.5711    0.0843    0.0000 C   0  0  0  0  0  0  0  0  0  0  0  0
    2.1545    0.6677    0.0000 C   0  0  0  0  0  0  0  0  0  0  0  0
    1.9409    1.4645    0.0000 C   0  0  0  0  0  0  0  0  0  0  0  0
    1.1440    1.6781    0.0000 C   0  0  0  0  0  0  0  0  0  0  0  0
   -5.3420    1.0375    0.0000 O   0  0  0  0  0  0  0  0  0  0  0  0
    2.9513    0.4541    0.0000 N   0  0  0  0  0  0  0  0  0  0  0  0
    3.1649   -0.3428    0.0000 C   0  0  0  0  0  0  0  0  0  0  0  0
    3.9618   -0.5563    0.0000 O   0  0  0  0  0  0  0  0  0  0  0  0
    2.5815   -0.9261    0.0000 O   0  0  0  0  0  0  0  0  0  0  0  0
    4.5451    0.0271    0.0000 C   0  0  0  0  0  0  0  0  0  0  0  0
    5.3420   -0.1865    0.0000 C   0  0  0  0  0  0  0  0  0  0  0  0
    4.3316    0.8240    0.0000 C   0  0  0  0  0  0  0  0  0  0  0  0
  1  2  4  0  0  0  0
  2  3  4  0  0  0  0
  3  4  4  0  0  0  0
  4  5  4  0  0  0  0
  5  1  4  0  0  0  0
  3  6  1  0  0  0  0
  6  7  4  0  0  0  0
  7  8  4  0  0  0  0
  8  9  4  0  0  0  0
  9 10  4  0  0  0  0
 10 11  4  0  0  0  0
 11  6  4  0  0  0  0
  9 12  1  0  0  0  0
 12 27  1  0  0  0  0
 11 13  1  0  0  0  0
 13 14  1  0  0  0  0
 13 15  2  0  0  0  0
 16 13  2  0  0  0  0
 14 17  1  0  0  0  0
 17 18  1  0  0  0  0
 17 19  1  0  0  0  0
 17 20  1  0  0  0  0
  5 21  1  0  0  0  0
 21 22  4  0  0  0  0
 22 23  4  0  0  0  0
 23 24  4  0  0  0  0
 24 25  4  0  0  0  0
 25 26  4  0  0  0  0
 26 21  4  0  0  0  0
 24 28  1  0  0  0  0
 28 29  1  0  0  0  0
 29 30  1  0  0  0  0
 29 31  2  0  0  0  0
 30 32  1  0  0  0  0
 32 33  1  0  0  0  0
 32 34  1  0  0  0  0
M  END
> <From>
www.bindingDB.org

> <BindingDB Reactant_set_id>
1155297

> <Ligand InChI>
InChI=1S/C24H29N3O5S2/c1-15(2)32-23(29)26-18-9-7-17(8-10-18)22-25-13-20(33-22)19-11-6-16(14-28)12-21(19)34(30,31)27-24(3,4)5/h6-13,15,27-28H,14H2,1-5H3,(H,26,29)

> <Ligand InChI Key>
NGVWHUUGLPMEJK-UHFFFAOYSA-N

> <BindingDB MonomerID>
546447

> <BindingDB Ligand Name>
US11291655, No J1

> <Target Name>
DNA repair protein RAD51 homolog 1

> <Target Source Organism According to Curator or DataSource>
Homo sapiens

> <Ki (nM)>


> <IC50 (nM)>


> <Kd (nM)>


> <EC50 (nM)>
<5000

> <kon (M-1-s-1)>


> <koff (s-1)>


> <pH>


> <Temp C>


> <Curation/DataSource>
US Patent

> <Article DOI>


> <BindingDB Entry DOI>
10.7270/Q2NG4TV0

> <PMID>


> <PubChem AID>
aid1806421

> <Patent Number>
US11291655

> <Authors>
Castro, AC; McComas, CC; Vacca, J

> <Date of publication>
4/5/2022

> <Date in BindingDB>
7/21/2022

> <Institution>
Cyteir Therapeutics, Inc.

> <Link to Ligand in BindingDB>
http://www.bindingdb.org/bind/chemsearch/marvin/MolStructure.jsp?monomerid=546447

> <Link to Ligand-Target Pair in BindingDB>
http://www.bindingdb.org/jsp/dbsearch/PrimarySearch_ki.jsp?energyterm=kJ/mole&tag=pol&polymerid=4676&target=DNA+repair+protein+RAD51+homolog+1&column=ki&startPg=0&Increment=50&submit=Search

> <Link to Ligand-Target Pair in BindingDB>
http://www.bindingdb.org/jsp/dbsearch/PrimarySearch_ki.jsp?energyterm=kJ/mole&tag=r21&monomerid=546447&enzyme=DNA+repair+protein+RAD51+homolog+1&column=ki&startPg=0&Increment=50&submit=Search

> <Ligand HET ID in PDB>


> <PDB ID(s) for Ligand-Target Complex>


> <PubChem CID of Ligand>
137411814

> <PubChem SID of Ligand>
469681143

> <ChEBI ID of Ligand>


> <ChEMBL ID of Ligand>


> <DrugBank ID of Ligand>


> <IUPHAR_GRAC ID of Ligand>


> <KEGG ID of Ligand>


> <ZINC ID of Ligand>


> <Number of Protein Chains in Target (bigger than 1 implies a multichain complex)>
1

> <BindingDB Target Chain Sequence>
MAMQMQLEANADTSVEEESFGPQPISRLEQCGINANDVKKLEEAGFHTVEAVAYAPKKELINIKGISEAKADKILAEAAKLVPMGFTTATEFHQRRSEIIQITTGSKELDKLLQGGIETGSITEMFGEFRTGKTQICHTLAVTCQLPIDRGGGEGKAMYIDTEGTFRPERLLAVAERYGLSGSDVLDNVAYARAFNTDHQTQLLYQASAMMVESRYALLIVDSATALYRTDYSGRGELSARQMHLARFLRMLLRLADEFGVAVVITNQVVAQVDGAAMFAADPKKPIGGNIIAHASTTRLYLRKGRGETRICKIYDSPCLPEAEAMFAINADGVGDAKD

> <PDB ID(s) of Target Chain>
1N0W,5JZC,5NP7,5NWL,8BQ2,8BR2,8BSC

> <UniProt (SwissProt) Recommended Name of Target Chain>
DNA repair protein RAD51 homolog 1

> <UniProt (SwissProt) Entry Name of Target Chain>
RAD51_HUMAN

> <UniProt (SwissProt) Primary ID of Target Chain>
Q06609

> <UniProt (SwissProt) Secondary ID(s) of Target Chain>
B0FXP0 B2R8T6 Q6FHX9 Q6ZNA8 Q9BV60

> <UniProt (SwissProt) Alternative ID(s) of Target Chain>


> <UniProt (TrEMBL) Submitted Name of Target Chain>


> <UniProt (TrEMBL) Entry Name of Target Chain>


> <UniProt (TrEMBL) Primary ID of Target Chain>


> <UniProt (TrEMBL) Secondary ID(s) of Target Chain>


> <UniProt (TrEMBL) Alternative ID(s) of Target Chain>


$$$$
00308001.cdx
  Mrv0541 07212217012D          

 36 39  0  0  0  0            999 V2000
    0.0780    2.0929    0.0000 N   0  0  0  0  0  0  0  0  0  0  0  0
   -0.7470    2.0929    0.0000 C   0  0  0  0  0  0  0  0  0  0  0  0
   -1.0020    1.3082    0.0000 C   0  0  0  0  0  0  0  0  0  0  0  0
   -0.3345    0.8233    0.0000 S   0  0  0  0  0  0  0  0  0  0  0  0
    0.3329    1.3082    0.0000 C   0  0  0  0  0  0  0  0  0  0  0  0
   -1.7989    1.0947    0.0000 C   0  0  0  0  0  0  0  0  0  0  0  0
   -2.3822    1.6781    0.0000 C   0  0  0  0  0  0  0  0  0  0  0  0
   -3.1791    1.4645    0.0000 C   0  0  0  0  0  0  0  0  0  0  0  0
   -3.3927    0.6677    0.0000 C   0  0  0  0  0  0  0  0  0  0  0  0
   -2.8093    0.0843    0.0000 C   0  0  0  0  0  0  0  0  0  0  0  0
   -2.0124    0.2978    0.0000 C   0  0  0  0  0  0  0  0  0  0  0  0
   -4.1895    0.4541    0.0000 N   0  0  0  0  0  0  0  0  0  0  0  0
   -1.4290   -0.2855    0.0000 S   0  0  0  0  0  0  0  0  0  0  0  0
   -1.6426   -1.0824    0.0000 N   0  0  0  0  0  0  0  0  0  0  0  0
   -0.6322   -0.4991    0.0000 O   0  0  0  0  0  0  0  0  0  0  0  0
   -0.8457    0.2978    0.0000 O   0  0  0  0  0  0  0  0  0  0  0  0
   -2.4395   -1.2960    0.0000 C   0  0  0  0  0  0  0  0  0  0  0  0
   -2.6530   -2.0929    0.0000 C   0  0  0  0  0  0  0  0  0  0  0  0
   -3.0228   -0.7126    0.0000 C   0  0  0  0  0  0  0  0  0  0  0  0
   -3.2363   -1.5095    0.0000 C   0  0  0  0  0  0  0  0  0  0  0  0
    1.1298    1.0947    0.0000 C   0  0  0  0  0  0  0  0  0  0  0  0
    1.3433    0.2978    0.0000 C   0  0  0  0  0  0  0  0  0  0  0  0
    2.1402    0.0843    0.0000 C   0  0  0  0  0  0  0  0  0  0  0  0
    2.7236    0.6677    0.0000 C   0  0  0  0  0  0  0  0  0  0  0  0
    2.5100    1.4645    0.0000 C   0  0  0  0  0  0  0  0  0  0  0  0
    1.7131    1.6781    0.0000 C   0  0  0  0  0  0  0  0  0  0  0  0
   -4.7729    1.0375    0.0000 C   0  0  0  0  0  0  0  0  0  0  0  0
   -5.5698    0.8240    0.0000 C   0  0  0  0  0  0  0  0  0  0  0  0
   -4.5594    1.8344    0.0000 O   0  0  0  0  0  0  0  0  0  0  0  0
    3.7754   -0.3305    0.0000 C   0  0  0  0  0  0  0  0  0  0  0  0
    4.6004   -0.3305    0.0000 O   0  0  0  0  0  0  0  0  0  0  0  0
    4.8553    0.4541    0.0000 C   0  0  0  0  0  0  0  0  0  0  0  0
    4.1879    0.9390    0.0000 C   0  0  0  0  0  0  0  0  0  0  0  0
    3.5204    0.4541    0.0000 N   0  0  0  0  0  0  0  0  0  0  0  0
    3.3629   -1.0450    0.0000 O   0  0  0  0  0  0  0  0  0  0  0  0
    5.5698    0.8666    0.0000 C   0  0  0  0  0  0  0  0  0  0  0  0
  1  2  4  0  0  0  0
  2  3  4  0  0  0  0
  3  4  4  0  0  0  0
  4  5  4  0  0  0  0
  5  1  4  0  0  0  0
  3  6  1  0  0  0  0
  6  7  4  0  0  0  0
  7  8  4  0  0  0  0
  8  9  4  0  0  0  0
  9 10  4  0  0  0  0
 10 11  4  0  0  0  0
 11  6  4  0  0  0  0
  9 12  1  0  0  0  0
 12 27  1  0  0  0  0
 11 13  1  0  0  0  0
 13 14  1  0  0  0  0
 13 15  2  0  0  0  0
 16 13  2  0  0  0  0
 14 17  1  0  0  0  0
 17 18  1  0  0  0  0
 17 19  1  0  0  0  0
 17 20  1  0  0  0  0
  5 21  1  0  0  0  0
 21 22  4  0  0  0  0
 22 23  4  0  0  0  0
 23 24  4  0  0  0  0
 24 25  4  0  0  0  0
 25 26  4  0  0  0  0
 26 21  4  0  0  0  0
 24 34  1  0  0  0  0
 27 28  1  0  0  0  0
 27 29  2  0  0  0  0
 30 31  1  0  0  0  0
 31 32  1  0  0  0  0
 32 33  1  0  0  0  0
 33 34  1  0  0  0  0
 34 30  1  0  0  0  0
 30 35  2  0  0  0  0
 32 36  1  0  0  0  0
M  END
> <From>
www.bindingDB.org

> <BindingDB Reactant_set_id>
1155298

> <Ligand InChI>
InChI=1S/C25H28N4O5S2/c1-15-14-29(24(31)34-15)19-9-6-17(7-10-19)23-26-13-21(35-23)20-11-8-18(27-16(2)30)12-22(20)36(32,33)28-25(3,4)5/h6-13,15,28H,14H2,1-5H3,(H,27,30)

> <Ligand InChI Key>
QJFJKZHQRHZPQR-UHFFFAOYSA-N

> <BindingDB MonomerID>
546448

> <BindingDB Ligand Name>
US11291655, No J10

> <Target Name>
DNA repair protein RAD51 homolog 1

> <Target Source Organism According to Curator or DataSource>
Homo sapiens

> <Ki (nM)>


> <IC50 (nM)>


> <Kd (nM)>


> <EC50 (nM)>
>10000

> <kon (M-1-s-1)>


> <koff (s-1)>


> <pH>


> <Temp C>


> <Curation/DataSource>
US Patent

> <Article DOI>


> <BindingDB Entry DOI>
10.7270/Q2NG4TV0

> <PMID>


> <PubChem AID>
aid1806421

> <Patent Number>
US11291655

> <Authors>
Castro, AC; McComas, CC; Vacca, J

> <Date of publication>
4/5/2022

> <Date in BindingDB>
7/21/2022

> <Institution>
Cyteir Therapeutics, Inc.

> <Link to Ligand in BindingDB>
http://www.bindingdb.org/bind/chemsearch/marvin/MolStructure.jsp?monomerid=546448

> <Link to Ligand-Target Pair in BindingDB>
http://www.bindingdb.org/jsp/dbsearch/PrimarySearch_ki.jsp?energyterm=kJ/mole&tag=pol&polymerid=4676&target=DNA+repair+protein+RAD51+homolog+1&column=ki&startPg=0&Increment=50&submit=Search

> <Link to Ligand-Target Pair in BindingDB>
http://www.bindingdb.org/jsp/dbsearch/PrimarySearch_ki.jsp?energyterm=kJ/mole&tag=r21&monomerid=546448&enzyme=DNA+repair+protein+RAD51+homolog+1&column=ki&startPg=0&Increment=50&submit=Search

> <Ligand HET ID in PDB>


> <PDB ID(s) for Ligand-Target Complex>


> <PubChem CID of Ligand>
137411815

> <PubChem SID of Ligand>
469681144

> <ChEBI ID of Ligand>


> <ChEMBL ID of Ligand>


> <DrugBank ID of Ligand>


> <IUPHAR_GRAC ID of Ligand>


> <KEGG ID of Ligand>


> <ZINC ID of Ligand>


> <Number of Protein Chains in Target (bigger than 1 implies a multichain complex)>
1

> <BindingDB Target Chain Sequence>
MAMQMQLEANADTSVEEESFGPQPISRLEQCGINANDVKKLEEAGFHTVEAVAYAPKKELINIKGISEAKADKILAEAAKLVPMGFTTATEFHQRRSEIIQITTGSKELDKLLQGGIETGSITEMFGEFRTGKTQICHTLAVTCQLPIDRGGGEGKAMYIDTEGTFRPERLLAVAERYGLSGSDVLDNVAYARAFNTDHQTQLLYQASAMMVESRYALLIVDSATALYRTDYSGRGELSARQMHLARFLRMLLRLADEFGVAVVITNQVVAQVDGAAMFAADPKKPIGGNIIAHASTTRLYLRKGRGETRICKIYDSPCLPEAEAMFAINADGVGDAKD

> <PDB ID(s) of Target Chain>
1N0W,5JZC,5NP7,5NWL,8BQ2,8BR2,8BSC

> <UniProt (SwissProt) Recommended Name of Target Chain>
DNA repair protein RAD51 homolog 1

> <UniProt (SwissProt) Entry Name of Target Chain>
RAD51_HUMAN

> <UniProt (SwissProt) Primary ID of Target Chain>
Q06609

> <UniProt (SwissProt) Secondary ID(s) of Target Chain>
B0FXP0 B2R8T6 Q6FHX9 Q6ZNA8 Q9BV60

> <UniProt (SwissProt) Alternative ID(s) of Target Chain>


> <UniProt (TrEMBL) Submitted Name of Target Chain>


> <UniProt (TrEMBL) Entry Name of Target Chain>


> <UniProt (TrEMBL) Primary ID of Target Chain>


> <UniProt (TrEMBL) Secondary ID(s) of Target Chain>


> <UniProt (TrEMBL) Alternative ID(s) of Target Chain>


$$$$
00309001.cdx
  Mrv0541 07212217012D          

 34 36  0  0  0  0            999 V2000
   -0.9664    1.0865    0.0000 C   0  0  0  0  0  0  0  0  0  0  0  0
   -0.9664    0.2615    0.0000 C   0  0  0  0  0  0  0  0  0  0  0  0
   -0.1817    0.0066    0.0000 S   0  0  0  0  0  0  0  0  0  0  0  0
    0.3032    0.6740    0.0000 C   0  0  0  0  0  0  0  0  0  0  0  0
   -0.1817    1.3415    0.0000 N   0  0  0  0  0  0  0  0  0  0  0  0
   -1.6808   -0.1510    0.0000 C   0  0  0  0  0  0  0  0  0  0  0  0
   -2.3953    0.2615    0.0000 C   0  0  0  0  0  0  0  0  0  0  0  0
   -3.1098   -0.1510    0.0000 C   0  0  0  0  0  0  0  0  0  0  0  0
   -3.1098   -0.9760    0.0000 C   0  0  0  0  0  0  0  0  0  0  0  0
   -2.3953   -1.3885    0.0000 C   0  0  0  0  0  0  0  0  0  0  0  0
   -1.6808   -0.9760    0.0000 C   0  0  0  0  0  0  0  0  0  0  0  0
   -3.8242   -1.3885    0.0000 N   0  0  0  0  0  0  0  0  0  0  0  0
   -0.9664   -1.3885    0.0000 S   0  0  0  0  0  0  0  0  0  0  0  0
   -0.2519   -1.8010    0.0000 N   0  0  0  0  0  0  0  0  0  0  0  0
   -0.5539   -0.6740    0.0000 O   0  0  0  0  0  0  0  0  0  0  0  0
   -1.3789   -2.1030    0.0000 O   0  0  0  0  0  0  0  0  0  0  0  0
    0.4626   -1.3885    0.0000 C   0  0  0  0  0  0  0  0  0  0  0  0
    1.1771   -1.8010    0.0000 C   0  0  0  0  0  0  0  0  0  0  0  0
    0.4626   -0.5635    0.0000 C   0  0  0  0  0  0  0  0  0  0  0  0
    1.1771   -0.9760    0.0000 C   0  0  0  0  0  0  0  0  0  0  0  0
    1.1282    0.6740    0.0000 C   0  0  0  0  0  0  0  0  0  0  0  0
    1.5407   -0.0405    0.0000 C   0  0  0  0  0  0  0  0  0  0  0  0
    2.3657   -0.0405    0.0000 C   0  0  0  0  0  0  0  0  0  0  0  0
    2.7782    0.6740    0.0000 C   0  0  0  0  0  0  0  0  0  0  0  0
    2.3657    1.3885    0.0000 C   0  0  0  0  0  0  0  0  0  0  0  0
    1.5407    1.3885    0.0000 C   0  0  0  0  0  0  0  0  0  0  0  0
    3.6032    0.6740    0.0000 N   0  0  0  0  0  0  0  0  0  0  0  0
    4.0157    1.3885    0.0000 C   0  0  0  0  0  0  0  0  0  0  0  0
    4.8407    1.3885    0.0000 C   0  0  0  0  0  0  0  0  0  0  0  0
   -4.5387   -0.9760    0.0000 C   0  0  0  0  0  0  0  0  0  0  0  0
   -5.2532   -1.3885    0.0000 C   0  0  0  0  0  0  0  0  0  0  0  0
   -4.5387   -0.1510    0.0000 O   0  0  0  0  0  0  0  0  0  0  0  0
    5.2532    2.1030    0.0000 C   0  0  0  0  0  0  0  0  0  0  0  0
    5.2532    0.6740    0.0000 O   0  0  0  0  0  0  0  0  0  0  0  0
  1  2  4  0  0  0  0
  2  3  4  0  0  0  0
  3  4  4  0  0  0  0
  4  5  4  0  0  0  0
  5  1  4  0  0  0  0
  2  6  1  0  0  0  0
  6  7  4  0  0  0  0
  7  8  4  0  0  0  0
  8  9  4  0  0  0  0
  9 10  4  0  0  0  0
 10 11  4  0  0  0  0
 11  6  4  0  0  0  0
  9 12  1  0  0  0  0
 11 13  1  0  0  0  0
 13 14  1  0  0  0  0
 13 15  2  0  0  0  0
 13 16  2  0  0  0  0
 14 17  1  0  0  0  0
 17 18  1  0  0  0  0
 17 19  1  0  0  0  0
 17 20  1  0  0  0  0
  4 21  1  0  0  0  0
 21 22  4  0  0  0  0
 22 23  4  0  0  0  0
 23 24  4  0  0  0  0
 24 25  4  0  0  0  0
 25 26  4  0  0  0  0
 26 21  4  0  0  0  0
 24 27  1  0  0  0  0
 27 28  1  0  0  0  0
 28 29  1  0  0  0  0
 12 30  1  0  0  0  0
 30 31  1  0  0  0  0
 30 32  2  0  0  0  0
 29 33  1  0  0  0  0
 29 34  1  0  0  0  0
M  END
> <From>
www.bindingDB.org

> <BindingDB Reactant_set_id>
1155299

> <Ligand InChI>
InChI=1S/C24H30N4O4S2/c1-15(29)13-25-18-8-6-17(7-9-18)23-26-14-21(33-23)20-11-10-19(27-16(2)30)12-22(20)34(31,32)28-24(3,4)5/h6-12,14-15,25,28-29H,13H2,1-5H3,(H,27,30)

> <Ligand InChI Key>
AJPFINAKRRNAMT-UHFFFAOYSA-N

> <BindingDB MonomerID>
546449

> <BindingDB Ligand Name>
US11291655, No J11

> <Target Name>
DNA repair protein RAD51 homolog 1

> <Target Source Organism According to Curator or DataSource>
Homo sapiens

> <Ki (nM)>


> <IC50 (nM)>


> <Kd (nM)>


> <EC50 (nM)>
>10000

> <kon (M-1-s-1)>


> <koff (s-1)>


> <pH>


> <Temp C>


> <Curation/DataSource>
US Patent

> <Article DOI>


> <BindingDB Entry DOI>
10.7270/Q2NG4TV0

> <PMID>


> <PubChem AID>
aid1806421

> <Patent Number>
US11291655

> <Authors>
Castro, AC; McComas, CC; Vacca, J

> <Date of publication>
4/5/2022

> <Date in BindingDB>
7/21/2022

> <Institution>
Cyteir Therapeutics, Inc.

> <Link to Ligand in BindingDB>
http://www.bindingdb.org/bind/chemsearch/marvin/MolStructure.jsp?monomerid=546449

> <Link to Ligand-Target Pair in BindingDB>
http://www.bindingdb.org/jsp/dbsearch/PrimarySearch_ki.jsp?energyterm=kJ/mole&tag=pol&polymerid=4676&target=DNA+repair+protein+RAD51+homolog+1&column=ki&startPg=0&Increment=50&submit=Search

> <Link to Ligand-Target Pair in BindingDB>
http://www.bindingdb.org/jsp/dbsearch/PrimarySearch_ki.jsp?energyterm=kJ/mole&tag=r21&monomerid=546449&enzyme=DNA+repair+protein+RAD51+homolog+1&column=ki&startPg=0&Increment=50&submit=Search

> <Ligand HET ID in PDB>


> <PDB ID(s) for Ligand-Target Complex>


> <PubChem CID of Ligand>
137408605

> <PubChem SID of Ligand>
469681145

> <ChEBI ID of Ligand>


> <ChEMBL ID of Ligand>


> <DrugBank ID of Ligand>


> <IUPHAR_GRAC ID of Ligand>


> <KEGG ID of Ligand>


> <ZINC ID of Ligand>


> <Number of Protein Chains in Target (bigger than 1 implies a multichain complex)>
1

> <BindingDB Target Chain Sequence>
MAMQMQLEANADTSVEEESFGPQPISRLEQCGINANDVKKLEEAGFHTVEAVAYAPKKELINIKGISEAKADKILAEAAKLVPMGFTTATEFHQRRSEIIQITTGSKELDKLLQGGIETGSITEMFGEFRTGKTQICHTLAVTCQLPIDRGGGEGKAMYIDTEGTFRPERLLAVAERYGLSGSDVLDNVAYARAFNTDHQTQLLYQASAMMVESRYALLIVDSATALYRTDYSGRGELSARQMHLARFLRMLLRLADEFGVAVVITNQVVAQVDGAAMFAADPKKPIGGNIIAHASTTRLYLRKGRGETRICKIYDSPCLPEAEAMFAINADGVGDAKD

> <PDB ID(s) of Target Chain>
1N0W,5JZC,5NP7,5NWL,8BQ2,8BR2,8BSC

> <UniProt (SwissProt) Recommended Name of Target Chain>
DNA repair protein RAD51 homolog 1

> <UniProt (SwissProt) Entry Name of Target Chain>
RAD51_HUMAN

> <UniProt (SwissProt) Primary ID of Target Chain>
Q06609

> <UniProt (SwissProt) Secondary ID(s) of Target Chain>
B0FXP0 B2R8T6 Q6FHX9 Q6ZNA8 Q9BV60

> <UniProt (SwissProt) Alternative ID(s) of Target Chain>


> <UniProt (TrEMBL) Submitted Name of Target Chain>


> <UniProt (TrEMBL) Entry Name of Target Chain>


> <UniProt (TrEMBL) Primary ID of Target Chain>


> <UniProt (TrEMBL) Secondary ID(s) of Target Chain>


> <UniProt (TrEMBL) Alternative ID(s) of Target Chain>


$$$$
00310001.cdx
  Mrv0541 07212217012D          

 35 37  0  0  0  0            999 V2000
   -1.1726    1.0865    0.0000 C   0  0  0  0  0  0  0  0  0  0  0  0
   -1.1726    0.2615    0.0000 C   0  0  0  0  0  0  0  0  0  0  0  0
   -0.3880    0.0066    0.0000 S   0  0  0  0  0  0  0  0  0  0  0  0
    0.0969    0.6740    0.0000 C   0  0  0  0  0  0  0  0  0  0  0  0
   -0.3880    1.3415    0.0000 N   0  0  0  0  0  0  0  0  0  0  0  0
   -1.8871   -0.1510    0.0000 C   0  0  0  0  0  0  0  0  0  0  0  0
   -2.6016    0.2615    0.0000 C   0  0  0  0  0  0  0  0  0  0  0  0
   -3.3160   -0.1510    0.0000 C   0  0  0  0  0  0  0  0  0  0  0  0
   -3.3160   -0.9760    0.0000 C   0  0  0  0  0  0  0  0  0  0  0  0
   -2.6016   -1.3885    0.0000 C   0  0  0  0  0  0  0  0  0  0  0  0
   -1.8871   -0.9760    0.0000 C   0  0  0  0  0  0  0  0  0  0  0  0
   -4.0305   -1.3885    0.0000 N   0  0  0  0  0  0  0  0  0  0  0  0
   -1.1726   -1.3885    0.0000 S   0  0  0  0  0  0  0  0  0  0  0  0
   -0.4581   -1.8010    0.0000 N   0  0  0  0  0  0  0  0  0  0  0  0
   -0.7601   -0.6740    0.0000 O   0  0  0  0  0  0  0  0  0  0  0  0
   -1.5851   -2.1030    0.0000 O   0  0  0  0  0  0  0  0  0  0  0  0
    0.2563   -1.3885    0.0000 C   0  0  0  0  0  0  0  0  0  0  0  0
    0.9708   -1.8010    0.0000 C   0  0  0  0  0  0  0  0  0  0  0  0
    0.2563   -0.5635    0.0000 C   0  0  0  0  0  0  0  0  0  0  0  0
    0.9708   -0.9760    0.0000 C   0  0  0  0  0  0  0  0  0  0  0  0
    0.9219    0.6740    0.0000 C   0  0  0  0  0  0  0  0  0  0  0  0
    1.3344   -0.0405    0.0000 C   0  0  0  0  0  0  0  0  0  0  0  0
    2.1594   -0.0405    0.0000 C   0  0  0  0  0  0  0  0  0  0  0  0
    2.5719    0.6740    0.0000 C   0  0  0  0  0  0  0  0  0  0  0  0
    2.1594    1.3885    0.0000 C   0  0  0  0  0  0  0  0  0  0  0  0
    1.3344    1.3885    0.0000 C   0  0  0  0  0  0  0  0  0  0  0  0
    3.3969    0.6740    0.0000 N   0  0  0  0  0  0  0  0  0  0  0  0
    3.8094    1.3885    0.0000 C   0  0  0  0  0  0  0  0  0  0  0  0
    4.6344    1.3885    0.0000 C   0  0  0  0  0  0  0  0  0  0  0  0
    5.0469    2.1030    0.0000 C   0  0  0  0  0  0  0  0  0  0  0  0
   -4.7450   -0.9760    0.0000 C   0  0  0  0  0  0  0  0  0  0  0  0
   -5.4594   -1.3885    0.0000 C   0  0  0  0  0  0  0  0  0  0  0  0
   -4.7450   -0.1510    0.0000 O   0  0  0  0  0  0  0  0  0  0  0  0
    5.0469    0.6740    0.0000 C   0  0  0  0  0  0  0  0  0  0  0  0
    5.4594    1.3885    0.0000 O   0  0  0  0  0  0  0  0  0  0  0  0
  1  2  4  0  0  0  0
  2  3  4  0  0  0  0
  3  4  4  0  0  0  0
  4  5  4  0  0  0  0
  5  1  4  0  0  0  0
  2  6  1  0  0  0  0
  6  7  4  0  0  0  0
  7  8  4  0  0  0  0
  8  9  4  0  0  0  0
  9 10  4  0  0  0  0
 10 11  4  0  0  0  0
 11  6  4  0  0  0  0
  9 12  1  0  0  0  0
 11 13  1  0  0  0  0
 13 14  1  0  0  0  0
 13 15  2  0  0  0  0
 13 16  2  0  0  0  0
 14 17  1  0  0  0  0
 17 18  1  0  0  0  0
 17 19  1  0  0  0  0
 17 20  1  0  0  0  0
  4 21  1  0  0  0  0
 21 22  4  0  0  0  0
 22 23  4  0  0  0  0
 23 24  4  0  0  0  0
 24 25  4  0  0  0  0
 25 26  4  0  0  0  0
 26 21  4  0  0  0  0
 24 27  1  0  0  0  0
 27 28  1  0  0  0  0
 28 29  1  0  0  0  0
 29 30  1  0  0  0  0
 12 31  1  0  0  0  0
 31 32  1  0  0  0  0
 31 33  2  0  0  0  0
 29 34  1  0  0  0  0
 29 35  1  0  0  0  0
M  END
> <From>
www.bindingDB.org

> <BindingDB Reactant_set_id>
1155300

> <Ligand InChI>
InChI=1S/C25H32N4O4S2/c1-16(30)28-19-11-12-20(22(13-19)35(32,33)29-24(2,3)4)21-14-26-23(34-21)17-7-9-18(10-8-17)27-15-25(5,6)31/h7-14,27,29,31H,15H2,1-6H3,(H,28,30)

> <Ligand InChI Key>
IZCMPLYVYBDALD-UHFFFAOYSA-N

> <BindingDB MonomerID>
546450

> <BindingDB Ligand Name>
US11291655, No J12

> <Target Name>
DNA repair protein RAD51 homolog 1

> <Target Source Organism According to Curator or DataSource>
Homo sapiens

> <Ki (nM)>


> <IC50 (nM)>


> <Kd (nM)>


> <EC50 (nM)>
>10000

> <kon (M-1-s-1)>


> <koff (s-1)>


> <pH>


> <Temp C>


> <Curation/DataSource>
US Patent

> <Article DOI>


> <BindingDB Entry DOI>
10.7270/Q2NG4TV0

> <PMID>


> <PubChem AID>
aid1806421

> <Patent Number>
US11291655

> <Authors>
Castro, AC; McComas, CC; Vacca, J

> <Date of publication>
4/5/2022

> <Date in BindingDB>
7/21/2022

> <Institution>
Cyteir Therapeutics, Inc.

> <Link to Ligand in BindingDB>
http://www.bindingdb.org/bind/chemsearch/marvin/MolStructure.jsp?monomerid=546450

> <Link to Ligand-Target Pair in BindingDB>
http://www.bindingdb.org/jsp/dbsearch/PrimarySearch_ki.jsp?energyterm=kJ/mole&tag=pol&polymerid=4676&target=DNA+repair+protein+RAD51+homolog+1&column=ki&startPg=0&Increment=50&submit=Search

> <Link to Ligand-Target Pair in BindingDB>
http://www.bindingdb.org/jsp/dbsearch/PrimarySearch_ki.jsp?energyterm=kJ/mole&tag=r21&monomerid=546450&enzyme=DNA+repair+protein+RAD51+homolog+1&column=ki&startPg=0&Increment=50&submit=Search

> <Ligand HET ID in PDB>


> <PDB ID(s) for Ligand-Target Complex>


> <PubChem CID of Ligand>
137408576

> <PubChem SID of Ligand>
469681146

> <ChEBI ID of Ligand>


> <ChEMBL ID of Ligand>


> <DrugBank ID of Ligand>


> <IUPHAR_GRAC ID of Ligand>


> <KEGG ID of Ligand>


> <ZINC ID of Ligand>


> <Number of Protein Chains in Target (bigger than 1 implies a multichain complex)>
1

> <BindingDB Target Chain Sequence>
MAMQMQLEANADTSVEEESFGPQPISRLEQCGINANDVKKLEEAGFHTVEAVAYAPKKELINIKGISEAKADKILAEAAKLVPMGFTTATEFHQRRSEIIQITTGSKELDKLLQGGIETGSITEMFGEFRTGKTQICHTLAVTCQLPIDRGGGEGKAMYIDTEGTFRPERLLAVAERYGLSGSDVLDNVAYARAFNTDHQTQLLYQASAMMVESRYALLIVDSATALYRTDYSGRGELSARQMHLARFLRMLLRLADEFGVAVVITNQVVAQVDGAAMFAADPKKPIGGNIIAHASTTRLYLRKGRGETRICKIYDSPCLPEAEAMFAINADGVGDAKD

> <PDB ID(s) of Target Chain>
1N0W,5JZC,5NP7,5NWL,8BQ2,8BR2,8BSC

> <UniProt (SwissProt) Recommended Name of Target Chain>
DNA repair protein RAD51 homolog 1

> <UniProt (SwissProt) Entry Name of Target Chain>
RAD51_HUMAN

> <UniProt (SwissProt) Primary ID of Target Chain>
Q06609

> <UniProt (SwissProt) Secondary ID(s) of Target Chain>
B0FXP0 B2R8T6 Q6FHX9 Q6ZNA8 Q9BV60

> <UniProt (SwissProt) Alternative ID(s) of Target Chain>


> <UniProt (TrEMBL) Submitted Name of Target Chain>


> <UniProt (TrEMBL) Entry Name of Target Chain>


> <UniProt (TrEMBL) Primary ID of Target Chain>


> <UniProt (TrEMBL) Secondary ID(s) of Target Chain>


> <UniProt (TrEMBL) Alternative ID(s) of Target Chain>


$$$$
00311001.cdx
  Mrv0541 07212217012D          

 37 40  0  0  0  0            999 V2000
    0.0780    2.0929    0.0000 N   0  0  0  0  0  0  0  0  0  0  0  0
   -0.7470    2.0929    0.0000 C   0  0  0  0  0  0  0  0  0  0  0  0
   -1.0020    1.3082    0.0000 C   0  0  0  0  0  0  0  0  0  0  0  0
   -0.3345    0.8233    0.0000 S   0  0  0  0  0  0  0  0  0  0  0  0
    0.3329    1.3082    0.0000 C   0  0  0  0  0  0  0  0  0  0  0  0
   -1.7989    1.0947    0.0000 C   0  0  0  0  0  0  0  0  0  0  0  0
   -2.3822    1.6781    0.0000 C   0  0  0  0  0  0  0  0  0  0  0  0
   -3.1791    1.4645    0.0000 C   0  0  0  0  0  0  0  0  0  0  0  0
   -3.3927    0.6677    0.0000 C   0  0  0  0  0  0  0  0  0  0  0  0
   -2.8093    0.0843    0.0000 C   0  0  0  0  0  0  0  0  0  0  0  0
   -2.0124    0.2978    0.0000 C   0  0  0  0  0  0  0  0  0  0  0  0
   -4.1895    0.4541    0.0000 N   0  0  0  0  0  0  0  0  0  0  0  0
   -4.7729    1.0375    0.0000 C   0  0  0  0  0  0  0  0  0  0  0  0
   -5.5698    0.8240    0.0000 C   0  0  0  0  0  0  0  0  0  0  0  0
   -4.5594    1.8344    0.0000 O   0  0  0  0  0  0  0  0  0  0  0  0
   -1.4290   -0.2855    0.0000 S   0  0  0  0  0  0  0  0  0  0  0  0
   -1.6426   -1.0824    0.0000 N   0  0  0  0  0  0  0  0  0  0  0  0
   -0.6322   -0.4991    0.0000 O   0  0  0  0  0  0  0  0  0  0  0  0
   -0.8457    0.2978    0.0000 O   0  0  0  0  0  0  0  0  0  0  0  0
   -2.4395   -1.2960    0.0000 C   0  0  0  0  0  0  0  0  0  0  0  0
   -2.6530   -2.0929    0.0000 C   0  0  0  0  0  0  0  0  0  0  0  0
   -3.0228   -0.7126    0.0000 C   0  0  0  0  0  0  0  0  0  0  0  0
   -3.2363   -1.5095    0.0000 C   0  0  0  0  0  0  0  0  0  0  0  0
    1.1298    1.0947    0.0000 C   0  0  0  0  0  0  0  0  0  0  0  0
    1.3433    0.2978    0.0000 C   0  0  0  0  0  0  0  0  0  0  0  0
    2.1402    0.0843    0.0000 C   0  0  0  0  0  0  0  0  0  0  0  0
    2.7236    0.6677    0.0000 C   0  0  0  0  0  0  0  0  0  0  0  0
    2.5100    1.4645    0.0000 C   0  0  0  0  0  0  0  0  0  0  0  0
    1.7131    1.6781    0.0000 C   0  0  0  0  0  0  0  0  0  0  0  0
    3.7754   -0.3305    0.0000 C   0  0  0  0  0  0  0  0  0  0  0  0
    4.6004   -0.3305    0.0000 O   0  0  0  0  0  0  0  0  0  0  0  0
    4.8553    0.4541    0.0000 C   0  0  0  0  0  0  0  0  0  0  0  0
    4.1879    0.9390    0.0000 C   0  0  0  0  0  0  0  0  0  0  0  0
    3.5204    0.4541    0.0000 N   0  0  0  0  0  0  0  0  0  0  0  0
    3.3629   -1.0450    0.0000 O   0  0  0  0  0  0  0  0  0  0  0  0
    5.5698    0.8666    0.0000 C   0  0  0  0  0  0  0  0  0  0  0  0
    4.8553    1.2791    0.0000 C   0  0  0  0  0  0  0  0  0  0  0  0
  1  2  4  0  0  0  0
  2  3  4  0  0  0  0
  3  4  4  0  0  0  0
  4  5  4  0  0  0  0
  5  1  4  0  0  0  0
  3  6  1  0  0  0  0
  6  7  4  0  0  0  0
  7  8  4  0  0  0  0
  8  9  4  0  0  0  0
  9 10  4  0  0  0  0
 10 11  4  0  0  0  0
 11  6  4  0  0  0  0
  9 12  1  0  0  0  0
 12 13  1  0  0  0  0
 13 14  1  0  0  0  0
 13 15  2  0  0  0  0
 11 16  1  0  0  0  0
 16 17  1  0  0  0  0
 16 18  2  0  0  0  0
 19 16  2  0  0  0  0
 17 20  1  0  0  0  0
 20 21  1  0  0  0  0
 20 22  1  0  0  0  0
 20 23  1  0  0  0  0
  5 24  1  0  0  0  0
 24 25  4  0  0  0  0
 25 26  4  0  0  0  0
 26 27  4  0  0  0  0
 27 28  4  0  0  0  0
 28 29  4  0  0  0  0
 29 24  4  0  0  0  0
 27 34  1  0  0  0  0
 30 31  1  0  0  0  0
 31 32  1  0  0  0  0
 32 33  1  0  0  0  0
 33 34  1  0  0  0  0
 34 30  1  0  0  0  0
 30 35  2  0  0  0  0
 32 36  1  0  0  0  0
 32 37  1  0  0  0  0
M  END
> <From>
www.bindingDB.org

> <BindingDB Reactant_set_id>
1155301

> <Ligand InChI>
InChI=1S/C26H30N4O5S2/c1-16(31)28-18-9-12-20(22(13-18)37(33,34)29-25(2,3)4)21-14-27-23(36-21)17-7-10-19(11-8-17)30-15-26(5,6)35-24(30)32/h7-14,29H,15H2,1-6H3,(H,28,31)

> <Ligand InChI Key>
JSHAOOZAPNTETC-UHFFFAOYSA-N

> <BindingDB MonomerID>
546451

> <BindingDB Ligand Name>
US11291655, No J13

> <Target Name>
DNA repair protein RAD51 homolog 1

> <Target Source Organism According to Curator or DataSource>
Homo sapiens

> <Ki (nM)>


> <IC50 (nM)>


> <Kd (nM)>


> <EC50 (nM)>
>10000

> <kon (M-1-s-1)>


> <koff (s-1)>


> <pH>


> <Temp C>


> <Curation/DataSource>
US Patent

> <Article DOI>


> <BindingDB Entry DOI>
10.7270/Q2NG4TV0

> <PMID>


> <PubChem AID>
aid1806421

> <Patent Number>
US11291655

> <Authors>
Castro, AC; McComas, CC; Vacca, J

> <Date of publication>
4/5/2022

> <Date in BindingDB>
7/21/2022

> <Institution>
Cyteir Therapeutics, Inc.

> <Link to Ligand in BindingDB>
http://www.bindingdb.org/bind/chemsearch/marvin/MolStructure.jsp?monomerid=546451

> <Link to Ligand-Target Pair in BindingDB>
http://www.bindingdb.org/jsp/dbsearch/PrimarySearch_ki.jsp?energyterm=kJ/mole&tag=pol&polymerid=4676&target=DNA+repair+protein+RAD51+homolog+1&column=ki&startPg=0&Increment=50&submit=Search

> <Link to Ligand-Target Pair in BindingDB>
http://www.bindingdb.org/jsp/dbsearch/PrimarySearch_ki.jsp?energyterm=kJ/mole&tag=r21&monomerid=546451&enzyme=DNA+repair+protein+RAD51+homolog+1&column=ki&startPg=0&Increment=50&submit=Search

> <Ligand HET ID in PDB>


> <PDB ID(s) for Ligand-Target Complex>


> <PubChem CID of Ligand>
137411701

> <PubChem SID of Ligand>
469681147

> <ChEBI ID of Ligand>


> <ChEMBL ID of Ligand>


> <DrugBank ID of Ligand>


> <IUPHAR_GRAC ID of Ligand>


> <KEGG ID of Ligand>


> <ZINC ID of Ligand>


> <Number of Protein Chains in Target (bigger than 1 implies a multichain complex)>
1

> <BindingDB Target Chain Sequence>
MAMQMQLEANADTSVEEESFGPQPISRLEQCGINANDVKKLEEAGFHTVEAVAYAPKKELINIKGISEAKADKILAEAAKLVPMGFTTATEFHQRRSEIIQITTGSKELDKLLQGGIETGSITEMFGEFRTGKTQICHTLAVTCQLPIDRGGGEGKAMYIDTEGTFRPERLLAVAERYGLSGSDVLDNVAYARAFNTDHQTQLLYQASAMMVESRYALLIVDSATALYRTDYSGRGELSARQMHLARFLRMLLRLADEFGVAVVITNQVVAQVDGAAMFAADPKKPIGGNIIAHASTTRLYLRKGRGETRICKIYDSPCLPEAEAMFAINADGVGDAKD

> <PDB ID(s) of Target Chain>
1N0W,5JZC,5NP7,5NWL,8BQ2,8BR2,8BSC

> <UniProt (SwissProt) Recommended Name of Target Chain>
DNA repair protein RAD51 homolog 1

> <UniProt (SwissProt) Entry Name of Target Chain>
RAD51_HUMAN

> <UniProt (SwissProt) Primary ID of Target Chain>
Q06609

> <UniProt (SwissProt) Secondary ID(s) of Target Chain>
B0FXP0 B2R8T6 Q6FHX9 Q6ZNA8 Q9BV60

> <UniProt (SwissProt) Alternative ID(s) of Target Chain>


> <UniProt (TrEMBL) Submitted Name of Target Chain>


> <UniProt (TrEMBL) Entry Name of Target Chain>


> <UniProt (TrEMBL) Primary ID of Target Chain>


> <UniProt (TrEMBL) Secondary ID(s) of Target Chain>


> <UniProt (TrEMBL) Alternative ID(s) of Target Chain>


$$$$
00312001.cdx
  Mrv0541 07212217012D          

 36 38  0  0  0  0            999 V2000
   -0.0641    1.7455    0.0000 N   0  0  0  0  0  0  0  0  0  0  0  0
   -0.8891    1.7455    0.0000 C   0  0  0  0  0  0  0  0  0  0  0  0
   -1.1440    0.9609    0.0000 C   0  0  0  0  0  0  0  0  0  0  0  0
   -0.4766    0.4759    0.0000 S   0  0  0  0  0  0  0  0  0  0  0  0
    0.1908    0.9609    0.0000 C   0  0  0  0  0  0  0  0  0  0  0  0
   -1.9409    0.7473    0.0000 C   0  0  0  0  0  0  0  0  0  0  0  0
   -2.5243    1.3307    0.0000 C   0  0  0  0  0  0  0  0  0  0  0  0
   -3.3212    1.1172    0.0000 C   0  0  0  0  0  0  0  0  0  0  0  0
   -3.5347    0.3203    0.0000 C   0  0  0  0  0  0  0  0  0  0  0  0
   -2.9513   -0.2631    0.0000 C   0  0  0  0  0  0  0  0  0  0  0  0
   -2.1545   -0.0495    0.0000 C   0  0  0  0  0  0  0  0  0  0  0  0
   -4.3316    0.1068    0.0000 N   0  0  0  0  0  0  0  0  0  0  0  0
   -4.9150    0.6901    0.0000 C   0  0  0  0  0  0  0  0  0  0  0  0
   -5.7118    0.4766    0.0000 C   0  0  0  0  0  0  0  0  0  0  0  0
   -4.7014    1.4870    0.0000 O   0  0  0  0  0  0  0  0  0  0  0  0
   -1.5711   -0.6329    0.0000 S   0  0  0  0  0  0  0  0  0  0  0  0
   -1.7846   -1.4298    0.0000 N   0  0  0  0  0  0  0  0  0  0  0  0
   -0.7742   -0.8464    0.0000 O   0  0  0  0  0  0  0  0  0  0  0  0
   -0.9877   -0.0495    0.0000 O   0  0  0  0  0  0  0  0  0  0  0  0
   -2.5815   -1.6433    0.0000 C   0  0  0  0  0  0  0  0  0  0  0  0
   -2.7950   -2.4402    0.0000 C   0  0  0  0  0  0  0  0  0  0  0  0
   -3.1649   -1.0600    0.0000 C   0  0  0  0  0  0  0  0  0  0  0  0
   -3.3784   -1.8569    0.0000 C   0  0  0  0  0  0  0  0  0  0  0  0
    0.9877    0.7473    0.0000 C   0  0  0  0  0  0  0  0  0  0  0  0
    1.2013   -0.0495    0.0000 C   0  0  0  0  0  0  0  0  0  0  0  0
    1.9981   -0.2631    0.0000 C   0  0  0  0  0  0  0  0  0  0  0  0
    2.5815    0.3203    0.0000 C   0  0  0  0  0  0  0  0  0  0  0  0
    2.3680    1.1172    0.0000 C   0  0  0  0  0  0  0  0  0  0  0  0
    1.5711    1.3307    0.0000 C   0  0  0  0  0  0  0  0  0  0  0  0
    2.9513    1.7005    0.0000 N   0  0  0  0  0  0  0  0  0  0  0  0
    3.7482    1.4870    0.0000 C   0  0  0  0  0  0  0  0  0  0  0  0
    4.3316    2.0704    0.0000 O   0  0  0  0  0  0  0  0  0  0  0  0
    3.9618    0.6901    0.0000 O   0  0  0  0  0  0  0  0  0  0  0  0
    5.1285    1.8569    0.0000 C   0  0  0  0  0  0  0  0  0  0  0  0
    5.7118    2.4402    0.0000 C   0  0  0  0  0  0  0  0  0  0  0  0
    5.3420    1.0600    0.0000 C   0  0  0  0  0  0  0  0  0  0  0  0
  1  2  4  0  0  0  0
  2  3  4  0  0  0  0
  3  4  4  0  0  0  0
  4  5  4  0  0  0  0
  5  1  4  0  0  0  0
  3  6  1  0  0  0  0
  6  7  4  0  0  0  0
  7  8  4  0  0  0  0
  8  9  4  0  0  0  0
  9 10  4  0  0  0  0
 10 11  4  0  0  0  0
 11  6  4  0  0  0  0
  9 12  1  0  0  0  0
 12 13  1  0  0  0  0
 13 14  1  0  0  0  0
 13 15  2  0  0  0  0
 11 16  1  0  0  0  0
 16 17  1  0  0  0  0
 16 18  2  0  0  0  0
 19 16  2  0  0  0  0
 17 20  1  0  0  0  0
 20 21  1  0  0  0  0
 20 22  1  0  0  0  0
 20 23  1  0  0  0  0
  5 24  1  0  0  0  0
 24 25  4  0  0  0  0
 25 26  4  0  0  0  0
 26 27  4  0  0  0  0
 27 28  4  0  0  0  0
 28 29  4  0  0  0  0
 29 24  4  0  0  0  0
 28 30  1  0  0  0  0
 30 31  1  0  0  0  0
 31 32  1  0  0  0  0
 31 33  2  0  0  0  0
 32 34  1  0  0  0  0
 34 35  1  0  0  0  0
 34 36  1  0  0  0  0
M  END
> <From>
www.bindingDB.org

> <BindingDB Reactant_set_id>
1155302

> <Ligand InChI>
InChI=1S/C25H30N4O5S2/c1-15(2)34-24(31)28-18-9-7-8-17(12-18)23-26-14-21(35-23)20-11-10-19(27-16(3)30)13-22(20)36(32,33)29-25(4,5)6/h7-15,29H,1-6H3,(H,27,30)(H,28,31)

> <Ligand InChI Key>
GIIGAXDRSTUBTB-UHFFFAOYSA-N

> <BindingDB MonomerID>
546452

> <BindingDB Ligand Name>
US11291655, No J14

> <Target Name>
DNA repair protein RAD51 homolog 1

> <Target Source Organism According to Curator or DataSource>
Homo sapiens

> <Ki (nM)>


> <IC50 (nM)>


> <Kd (nM)>


> <EC50 (nM)>
<10000

> <kon (M-1-s-1)>


> <koff (s-1)>


> <pH>


> <Temp C>


> <Curation/DataSource>
US Patent

> <Article DOI>


> <BindingDB Entry DOI>
10.7270/Q2NG4TV0

> <PMID>


> <PubChem AID>
aid1806421

> <Patent Number>
US11291655

> <Authors>
Castro, AC; McComas, CC; Vacca, J

> <Date of publication>
4/5/2022

> <Date in BindingDB>
7/21/2022

> <Institution>
Cyteir Therapeutics, Inc.

> <Link to Ligand in BindingDB>
http://www.bindingdb.org/bind/chemsearch/marvin/MolStructure.jsp?monomerid=546452

> <Link to Ligand-Target Pair in BindingDB>
http://www.bindingdb.org/jsp/dbsearch/PrimarySearch_ki.jsp?energyterm=kJ/mole&tag=pol&polymerid=4676&target=DNA+repair+protein+RAD51+homolog+1&column=ki&startPg=0&Increment=50&submit=Search

> <Link to Ligand-Target Pair in BindingDB>
http://www.bindingdb.org/jsp/dbsearch/PrimarySearch_ki.jsp?energyterm=kJ/mole&tag=r21&monomerid=546452&enzyme=DNA+repair+protein+RAD51+homolog+1&column=ki&startPg=0&Increment=50&submit=Search

> <Ligand HET ID in PDB>


> <PDB ID(s) for Ligand-Target Complex>


> <PubChem CID of Ligand>
137411871

> <PubChem SID of Ligand>
469681148

> <ChEBI ID of Ligand>


> <ChEMBL ID of Ligand>


> <DrugBank ID of Ligand>


> <IUPHAR_GRAC ID of Ligand>


> <KEGG ID of Ligand>


> <ZINC ID of Ligand>


> <Number of Protein Chains in Target (bigger than 1 implies a multichain complex)>
1

> <BindingDB Target Chain Sequence>
MAMQMQLEANADTSVEEESFGPQPISRLEQCGINANDVKKLEEAGFHTVEAVAYAPKKELINIKGISEAKADKILAEAAKLVPMGFTTATEFHQRRSEIIQITTGSKELDKLLQGGIETGSITEMFGEFRTGKTQICHTLAVTCQLPIDRGGGEGKAMYIDTEGTFRPERLLAVAERYGLSGSDVLDNVAYARAFNTDHQTQLLYQASAMMVESRYALLIVDSATALYRTDYSGRGELSARQMHLARFLRMLLRLADEFGVAVVITNQVVAQVDGAAMFAADPKKPIGGNIIAHASTTRLYLRKGRGETRICKIYDSPCLPEAEAMFAINADGVGDAKD

> <PDB ID(s) of Target Chain>
1N0W,5JZC,5NP7,5NWL,8BQ2,8BR2,8BSC

> <UniProt (SwissProt) Recommended Name of Target Chain>
DNA repair protein RAD51 homolog 1

> <UniProt (SwissProt) Entry Name of Target Chain>
RAD51_HUMAN

> <UniProt (SwissProt) Primary ID of Target Chain>
Q06609

> <UniProt (SwissProt) Secondary ID(s) of Target Chain>
B0FXP0 B2R8T6 Q6FHX9 Q6ZNA8 Q9BV60

> <UniProt (SwissProt) Alternative ID(s) of Target Chain>


> <UniProt (TrEMBL) Submitted Name of Target Chain>


> <UniProt (TrEMBL) Entry Name of Target Chain>


> <UniProt (TrEMBL) Primary ID of Target Chain>


> <UniProt (TrEMBL) Secondary ID(s) of Target Chain>


> <UniProt (TrEMBL) Alternative ID(s) of Target Chain>


$$$$
00313001.cdx
  Mrv0541 07212217012D          

 37 39  0  0  0  0            999 V2000
   -0.0684    2.0929    0.0000 N   0  0  0  0  0  0  0  0  0  0  0  0
   -0.8934    2.0929    0.0000 C   0  0  0  0  0  0  0  0  0  0  0  0
   -1.1483    1.3082    0.0000 C   0  0  0  0  0  0  0  0  0  0  0  0
   -0.4809    0.8233    0.0000 S   0  0  0  0  0  0  0  0  0  0  0  0
    0.1866    1.3082    0.0000 C   0  0  0  0  0  0  0  0  0  0  0  0
   -1.9452    1.0947    0.0000 C   0  0  0  0  0  0  0  0  0  0  0  0
   -2.5286    1.6781    0.0000 C   0  0  0  0  0  0  0  0  0  0  0  0
   -3.3254    1.4645    0.0000 C   0  0  0  0  0  0  0  0  0  0  0  0
   -3.5390    0.6677    0.0000 C   0  0  0  0  0  0  0  0  0  0  0  0
   -2.9556    0.0843    0.0000 C   0  0  0  0  0  0  0  0  0  0  0  0
   -2.1587    0.2978    0.0000 C   0  0  0  0  0  0  0  0  0  0  0  0
   -4.3359    0.4541    0.0000 N   0  0  0  0  0  0  0  0  0  0  0  0
   -1.5754   -0.2855    0.0000 S   0  0  0  0  0  0  0  0  0  0  0  0
   -1.7889   -1.0824    0.0000 N   0  0  0  0  0  0  0  0  0  0  0  0
   -0.7785   -0.4991    0.0000 O   0  0  0  0  0  0  0  0  0  0  0  0
   -0.9920    0.2978    0.0000 O   0  0  0  0  0  0  0  0  0  0  0  0
   -2.5858   -1.2960    0.0000 C   0  0  0  0  0  0  0  0  0  0  0  0
   -2.7993   -2.0929    0.0000 C   0  0  0  0  0  0  0  0  0  0  0  0
   -3.1691   -0.7126    0.0000 C   0  0  0  0  0  0  0  0  0  0  0  0
   -3.3827   -1.5095    0.0000 C   0  0  0  0  0  0  0  0  0  0  0  0
    0.9835    1.0947    0.0000 C   0  0  0  0  0  0  0  0  0  0  0  0
    1.1970    0.2978    0.0000 C   0  0  0  0  0  0  0  0  0  0  0  0
    1.9939    0.0843    0.0000 C   0  0  0  0  0  0  0  0  0  0  0  0
    2.5772    0.6677    0.0000 C   0  0  0  0  0  0  0  0  0  0  0  0
    2.3637    1.4645    0.0000 C   0  0  0  0  0  0  0  0  0  0  0  0
    1.5668    1.6781    0.0000 C   0  0  0  0  0  0  0  0  0  0  0  0
    3.3741    0.4541    0.0000 N   0  0  0  0  0  0  0  0  0  0  0  0
   -5.0503    0.8666    0.0000 S   0  0  0  0  0  0  0  0  0  0  0  0
   -5.7648    0.4541    0.0000 C   0  0  0  0  0  0  0  0  0  0  0  0
   -4.6378    1.5811    0.0000 O   0  0  0  0  0  0  0  0  0  0  0  0
   -5.4628    1.5811    0.0000 O   0  0  0  0  0  0  0  0  0  0  0  0
    3.5877   -0.3428    0.0000 C   0  0  0  0  0  0  0  0  0  0  0  0
    4.3845   -0.5563    0.0000 N   0  0  0  0  0  0  0  0  0  0  0  0
    3.0043   -0.9261    0.0000 O   0  0  0  0  0  0  0  0  0  0  0  0
    4.9679    0.0271    0.0000 C   0  0  0  0  0  0  0  0  0  0  0  0
    5.7648   -0.1864    0.0000 C   0  0  0  0  0  0  0  0  0  0  0  0
    4.7544    0.8240    0.0000 C   0  0  0  0  0  0  0  0  0  0  0  0
  1  2  4  0  0  0  0
  2  3  4  0  0  0  0
  3  4  4  0  0  0  0
  4  5  4  0  0  0  0
  5  1  4  0  0  0  0
  3  6  1  0  0  0  0
  6  7  4  0  0  0  0
  7  8  4  0  0  0  0
  8  9  4  0  0  0  0
  9 10  4  0  0  0  0
 10 11  4  0  0  0  0
 11  6  4  0  0  0  0
  9 12  1  0  0  0  0
 11 13  1  0  0  0  0
 13 14  1  0  0  0  0
 13 15  2  0  0  0  0
 16 13  2  0  0  0  0
 14 17  1  0  0  0  0
 17 18  1  0  0  0  0
 17 19  1  0  0  0  0
 17 20  1  0  0  0  0
  5 21  1  0  0  0  0
 21 22  4  0  0  0  0
 22 23  4  0  0  0  0
 23 24  4  0  0  0  0
 24 25  4  0  0  0  0
 25 26  4  0  0  0  0
 26 21  4  0  0  0  0
 24 27  1  0  0  0  0
 12 28  1  0  0  0  0
 28 29  1  0  0  0  0
 28 30  2  0  0  0  0
 31 28  2  0  0  0  0
 27 32  1  0  0  0  0
 32 33  1  0  0  0  0
 32 34  2  0  0  0  0
 33 35  1  0  0  0  0
 35 36  1  0  0  0  0
 35 37  1  0  0  0  0
M  END
> <From>
www.bindingDB.org

> <BindingDB Reactant_set_id>
1155303

> <Ligand InChI>
InChI=1S/C24H31N5O5S3/c1-15(2)26-23(30)27-17-9-7-16(8-10-17)22-25-14-20(35-22)19-12-11-18(28-36(6,31)32)13-21(19)37(33,34)29-24(3,4)5/h7-15,28-29H,1-6H3,(H2,26,27,30)

> <Ligand InChI Key>
BMDIPSXSNOHAID-UHFFFAOYSA-N

> <BindingDB MonomerID>
546453

> <BindingDB Ligand Name>
US11291655, No J15

> <Target Name>
DNA repair protein RAD51 homolog 1

> <Target Source Organism According to Curator or DataSource>
Homo sapiens

> <Ki (nM)>


> <IC50 (nM)>


> <Kd (nM)>


> <EC50 (nM)>
>10000

> <kon (M-1-s-1)>


> <koff (s-1)>


> <pH>


> <Temp C>


> <Curation/DataSource>
US Patent

> <Article DOI>


> <BindingDB Entry DOI>
10.7270/Q2NG4TV0

> <PMID>


> <PubChem AID>
aid1806421

> <Patent Number>
US11291655

> <Authors>
Castro, AC; McComas, CC; Vacca, J

> <Date of publication>
4/5/2022

> <Date in BindingDB>
7/21/2022

> <Institution>
Cyteir Therapeutics, Inc.

> <Link to Ligand in BindingDB>
http://www.bindingdb.org/bind/chemsearch/marvin/MolStructure.jsp?monomerid=546453

> <Link to Ligand-Target Pair in BindingDB>
http://www.bindingdb.org/jsp/dbsearch/PrimarySearch_ki.jsp?energyterm=kJ/mole&tag=pol&polymerid=4676&target=DNA+repair+protein+RAD51+homolog+1&column=ki&startPg=0&Increment=50&submit=Search

> <Link to Ligand-Target Pair in BindingDB>
http://www.bindingdb.org/jsp/dbsearch/PrimarySearch_ki.jsp?energyterm=kJ/mole&tag=r21&monomerid=546453&enzyme=DNA+repair+protein+RAD51+homolog+1&column=ki&startPg=0&Increment=50&submit=Search

> <Ligand HET ID in PDB>


> <PDB ID(s) for Ligand-Target Complex>


> <PubChem CID of Ligand>
137411799

> <PubChem SID of Ligand>
469681149

> <ChEBI ID of Ligand>


> <ChEMBL ID of Ligand>


> <DrugBank ID of Ligand>


> <IUPHAR_GRAC ID of Ligand>


> <KEGG ID of Ligand>


> <ZINC ID of Ligand>


> <Number of Protein Chains in Target (bigger than 1 implies a multichain complex)>
1

> <BindingDB Target Chain Sequence>
MAMQMQLEANADTSVEEESFGPQPISRLEQCGINANDVKKLEEAGFHTVEAVAYAPKKELINIKGISEAKADKILAEAAKLVPMGFTTATEFHQRRSEIIQITTGSKELDKLLQGGIETGSITEMFGEFRTGKTQICHTLAVTCQLPIDRGGGEGKAMYIDTEGTFRPERLLAVAERYGLSGSDVLDNVAYARAFNTDHQTQLLYQASAMMVESRYALLIVDSATALYRTDYSGRGELSARQMHLARFLRMLLRLADEFGVAVVITNQVVAQVDGAAMFAADPKKPIGGNIIAHASTTRLYLRKGRGETRICKIYDSPCLPEAEAMFAINADGVGDAKD

> <PDB ID(s) of Target Chain>
1N0W,5JZC,5NP7,5NWL,8BQ2,8BR2,8BSC

> <UniProt (SwissProt) Recommended Name of Target Chain>
DNA repair protein RAD51 homolog 1

> <UniProt (SwissProt) Entry Name of Target Chain>
RAD51_HUMAN

> <UniProt (SwissProt) Primary ID of Target Chain>
Q06609

> <UniProt (SwissProt) Secondary ID(s) of Target Chain>
B0FXP0 B2R8T6 Q6FHX9 Q6ZNA8 Q9BV60

> <UniProt (SwissProt) Alternative ID(s) of Target Chain>


> <UniProt (TrEMBL) Submitted Name of Target Chain>


> <UniProt (TrEMBL) Entry Name of Target Chain>


> <UniProt (TrEMBL) Primary ID of Target Chain>


> <UniProt (TrEMBL) Secondary ID(s) of Target Chain>


> <UniProt (TrEMBL) Alternative ID(s) of Target Chain>


$$$$
00314001.cdx
  Mrv0541 07212217012D          

 40 43  0  0  0  0            999 V2000
   -0.1154    2.0929    0.0000 N   0  0  0  0  0  0  0  0  0  0  0  0
   -0.9404    2.0929    0.0000 C   0  0  0  0  0  0  0  0  0  0  0  0
   -1.1953    1.3082    0.0000 C   0  0  0  0  0  0  0  0  0  0  0  0
   -0.5279    0.8233    0.0000 S   0  0  0  0  0  0  0  0  0  0  0  0
    0.1395    1.3082    0.0000 C   0  0  0  0  0  0  0  0  0  0  0  0
   -1.9922    1.0947    0.0000 C   0  0  0  0  0  0  0  0  0  0  0  0
   -2.5756    1.6781    0.0000 C   0  0  0  0  0  0  0  0  0  0  0  0
   -3.3725    1.4645    0.0000 C   0  0  0  0  0  0  0  0  0  0  0  0
   -3.5860    0.6677    0.0000 C   0  0  0  0  0  0  0  0  0  0  0  0
   -3.0026    0.0843    0.0000 C   0  0  0  0  0  0  0  0  0  0  0  0
   -2.2057    0.2978    0.0000 C   0  0  0  0  0  0  0  0  0  0  0  0
   -1.6224   -0.2855    0.0000 S   0  0  0  0  0  0  0  0  0  0  0  0
   -1.8359   -1.0824    0.0000 N   0  0  0  0  0  0  0  0  0  0  0  0
   -0.8255   -0.4991    0.0000 O   0  0  0  0  0  0  0  0  0  0  0  0
   -1.0390    0.2978    0.0000 O   0  0  0  0  0  0  0  0  0  0  0  0
   -2.6328   -1.2960    0.0000 C   0  0  0  0  0  0  0  0  0  0  0  0
   -2.8463   -2.0929    0.0000 C   0  0  0  0  0  0  0  0  0  0  0  0
   -3.2162   -0.7126    0.0000 C   0  0  0  0  0  0  0  0  0  0  0  0
   -3.4297   -1.5095    0.0000 C   0  0  0  0  0  0  0  0  0  0  0  0
    0.9364    1.0947    0.0000 C   0  0  0  0  0  0  0  0  0  0  0  0
    1.1500    0.2978    0.0000 C   0  0  0  0  0  0  0  0  0  0  0  0
    1.9468    0.0843    0.0000 C   0  0  0  0  0  0  0  0  0  0  0  0
    2.5302    0.6677    0.0000 C   0  0  0  0  0  0  0  0  0  0  0  0
    2.3167    1.4645    0.0000 C   0  0  0  0  0  0  0  0  0  0  0  0
    1.5198    1.6781    0.0000 C   0  0  0  0  0  0  0  0  0  0  0  0
    3.3271    0.4541    0.0000 N   0  0  0  0  0  0  0  0  0  0  0  0
   -5.4628   -0.3305    0.0000 C   0  0  0  0  0  0  0  0  0  0  0  0
   -4.6378   -0.3305    0.0000 C   0  0  0  0  0  0  0  0  0  0  0  0
   -4.3829    0.4541    0.0000 N   0  0  0  0  0  0  0  0  0  0  0  0
   -5.0503    0.9391    0.0000 C   0  0  0  0  0  0  0  0  0  0  0  0
   -5.7178    0.4541    0.0000 C   0  0  0  0  0  0  0  0  0  0  0  0
   -5.0503    1.7641    0.0000 O   0  0  0  0  0  0  0  0  0  0  0  0
    2.9000    2.0479    0.0000 O   0  0  0  0  0  0  0  0  0  0  0  0
    3.6969    1.8344    0.0000 C   0  0  0  0  0  0  0  0  0  0  0  0
    3.5406   -0.3428    0.0000 C   0  0  0  0  0  0  0  0  0  0  0  0
    4.3375   -0.5563    0.0000 O   0  0  0  0  0  0  0  0  0  0  0  0
    2.9573   -0.9261    0.0000 O   0  0  0  0  0  0  0  0  0  0  0  0
    4.9209    0.0271    0.0000 C   0  0  0  0  0  0  0  0  0  0  0  0
    5.7178   -0.1864    0.0000 C   0  0  0  0  0  0  0  0  0  0  0  0
    4.7074    0.8240    0.0000 C   0  0  0  0  0  0  0  0  0  0  0  0
  1  2  4  0  0  0  0
  2  3  4  0  0  0  0
  3  4  4  0  0  0  0
  4  5  4  0  0  0  0
  5  1  4  0  0  0  0
  3  6  1  0  0  0  0
  6  7  4  0  0  0  0
  7  8  4  0  0  0  0
  8  9  4  0  0  0  0
  9 10  4  0  0  0  0
 10 11  4  0  0  0  0
 11  6  4  0  0  0  0
  9 29  1  0  0  0  0
 11 12  1  0  0  0  0
 12 13  1  0  0  0  0
 12 14  2  0  0  0  0
 15 12  2  0  0  0  0
 13 16  1  0  0  0  0
 16 17  1  0  0  0  0
 16 18  1  0  0  0  0
 16 19  1  0  0  0  0
  5 20  1  0  0  0  0
 20 21  4  0  0  0  0
 21 22  4  0  0  0  0
 22 23  4  0  0  0  0
 23 24  4  0  0  0  0
 24 25  4  0  0  0  0
 25 20  4  0  0  0  0
 23 26  1  0  0  0  0
 27 28  1  0  0  0  0
 28 29  1  0  0  0  0
 29 30  1  0  0  0  0
 30 31  1  0  0  0  0
 31 27  1  0  0  0  0
 30 32  2  0  0  0  0
 24 33  1  0  0  0  0
 33 34  1  0  0  0  0
 26 35  1  0  0  0  0
 35 36  1  0  0  0  0
 35 37  2  0  0  0  0
 36 38  1  0  0  0  0
 38 39  1  0  0  0  0
 38 40  1  0  0  0  0
M  END
> <From>
www.bindingDB.org

> <BindingDB Reactant_set_id>
1155304

> <Ligand InChI>
InChI=1S/C28H34N4O6S2/c1-17(2)38-27(34)30-21-12-9-18(14-22(21)37-6)26-29-16-23(39-26)20-11-10-19(32-13-7-8-25(32)33)15-24(20)40(35,36)31-28(3,4)5/h9-12,14-17,31H,7-8,13H2,1-6H3,(H,30,34)

> <Ligand InChI Key>
OESKQMGODBSCCR-UHFFFAOYSA-N

> <BindingDB MonomerID>
546454

> <BindingDB Ligand Name>
US11291655, No J16

> <Target Name>
DNA repair protein RAD51 homolog 1

> <Target Source Organism According to Curator or DataSource>
Homo sapiens

> <Ki (nM)>


> <IC50 (nM)>


> <Kd (nM)>


> <EC50 (nM)>
<10000

> <kon (M-1-s-1)>


> <koff (s-1)>


> <pH>


> <Temp C>


> <Curation/DataSource>
US Patent

> <Article DOI>


> <BindingDB Entry DOI>
10.7270/Q2NG4TV0

> <PMID>


> <PubChem AID>
aid1806421

> <Patent Number>
US11291655

> <Authors>
Castro, AC; McComas, CC; Vacca, J

> <Date of publication>
4/5/2022

> <Date in BindingDB>
7/21/2022

> <Institution>
Cyteir Therapeutics, Inc.

> <Link to Ligand in BindingDB>
http://www.bindingdb.org/bind/chemsearch/marvin/MolStructure.jsp?monomerid=546454

> <Link to Ligand-Target Pair in BindingDB>
http://www.bindingdb.org/jsp/dbsearch/PrimarySearch_ki.jsp?energyterm=kJ/mole&tag=pol&polymerid=4676&target=DNA+repair+protein+RAD51+homolog+1&column=ki&startPg=0&Increment=50&submit=Search

> <Link to Ligand-Target Pair in BindingDB>
http://www.bindingdb.org/jsp/dbsearch/PrimarySearch_ki.jsp?energyterm=kJ/mole&tag=r21&monomerid=546454&enzyme=DNA+repair+protein+RAD51+homolog+1&column=ki&startPg=0&Increment=50&submit=Search

> <Ligand HET ID in PDB>


> <PDB ID(s) for Ligand-Target Complex>


> <PubChem CID of Ligand>
137411767

> <PubChem SID of Ligand>
469681150

> <ChEBI ID of Ligand>


> <ChEMBL ID of Ligand>


> <DrugBank ID of Ligand>


> <IUPHAR_GRAC ID of Ligand>


> <KEGG ID of Ligand>


> <ZINC ID of Ligand>


> <Number of Protein Chains in Target (bigger than 1 implies a multichain complex)>
1

> <BindingDB Target Chain Sequence>
MAMQMQLEANADTSVEEESFGPQPISRLEQCGINANDVKKLEEAGFHTVEAVAYAPKKELINIKGISEAKADKILAEAAKLVPMGFTTATEFHQRRSEIIQITTGSKELDKLLQGGIETGSITEMFGEFRTGKTQICHTLAVTCQLPIDRGGGEGKAMYIDTEGTFRPERLLAVAERYGLSGSDVLDNVAYARAFNTDHQTQLLYQASAMMVESRYALLIVDSATALYRTDYSGRGELSARQMHLARFLRMLLRLADEFGVAVVITNQVVAQVDGAAMFAADPKKPIGGNIIAHASTTRLYLRKGRGETRICKIYDSPCLPEAEAMFAINADGVGDAKD

> <PDB ID(s) of Target Chain>
1N0W,5JZC,5NP7,5NWL,8BQ2,8BR2,8BSC

> <UniProt (SwissProt) Recommended Name of Target Chain>
DNA repair protein RAD51 homolog 1

> <UniProt (SwissProt) Entry Name of Target Chain>
RAD51_HUMAN

> <UniProt (SwissProt) Primary ID of Target Chain>
Q06609

> <UniProt (SwissProt) Secondary ID(s) of Target Chain>
B0FXP0 B2R8T6 Q6FHX9 Q6ZNA8 Q9BV60

> <UniProt (SwissProt) Alternative ID(s) of Target Chain>


> <UniProt (TrEMBL) Submitted Name of Target Chain>


> <UniProt (TrEMBL) Entry Name of Target Chain>


> <UniProt (TrEMBL) Primary ID of Target Chain>


> <UniProt (TrEMBL) Secondary ID(s) of Target Chain>


> <UniProt (TrEMBL) Alternative ID(s) of Target Chain>


$$$$
00316001.cdx
  Mrv0541 07212217012D          

 38 40  0  0  0  0            999 V2000
   -0.0684    2.0929    0.0000 N   0  0  0  0  0  0  0  0  0  0  0  0
   -0.8934    2.0929    0.0000 C   0  0  0  0  0  0  0  0  0  0  0  0
   -1.1483    1.3082    0.0000 C   0  0  0  0  0  0  0  0  0  0  0  0
   -0.4809    0.8233    0.0000 S   0  0  0  0  0  0  0  0  0  0  0  0
    0.1866    1.3082    0.0000 C   0  0  0  0  0  0  0  0  0  0  0  0
   -1.9452    1.0947    0.0000 C   0  0  0  0  0  0  0  0  0  0  0  0
   -2.5286    1.6781    0.0000 C   0  0  0  0  0  0  0  0  0  0  0  0
   -3.3254    1.4645    0.0000 C   0  0  0  0  0  0  0  0  0  0  0  0
   -3.5390    0.6677    0.0000 C   0  0  0  0  0  0  0  0  0  0  0  0
   -2.9556    0.0843    0.0000 C   0  0  0  0  0  0  0  0  0  0  0  0
   -2.1587    0.2978    0.0000 C   0  0  0  0  0  0  0  0  0  0  0  0
   -4.3359    0.4541    0.0000 N   0  0  0  0  0  0  0  0  0  0  0  0
   -1.5754   -0.2855    0.0000 S   0  0  0  0  0  0  0  0  0  0  0  0
   -1.7889   -1.0824    0.0000 N   0  0  0  0  0  0  0  0  0  0  0  0
   -0.7785   -0.4991    0.0000 O   0  0  0  0  0  0  0  0  0  0  0  0
   -0.9920    0.2978    0.0000 O   0  0  0  0  0  0  0  0  0  0  0  0
   -2.5858   -1.2960    0.0000 C   0  0  0  0  0  0  0  0  0  0  0  0
   -2.7993   -2.0929    0.0000 C   0  0  0  0  0  0  0  0  0  0  0  0
   -3.1691   -0.7126    0.0000 C   0  0  0  0  0  0  0  0  0  0  0  0
   -3.3827   -1.5095    0.0000 C   0  0  0  0  0  0  0  0  0  0  0  0
    0.9835    1.0947    0.0000 C   0  0  0  0  0  0  0  0  0  0  0  0
    1.1970    0.2978    0.0000 C   0  0  0  0  0  0  0  0  0  0  0  0
    1.9939    0.0843    0.0000 C   0  0  0  0  0  0  0  0  0  0  0  0
    2.5772    0.6677    0.0000 C   0  0  0  0  0  0  0  0  0  0  0  0
    2.3637    1.4645    0.0000 C   0  0  0  0  0  0  0  0  0  0  0  0
    1.5668    1.6781    0.0000 C   0  0  0  0  0  0  0  0  0  0  0  0
    3.3741    0.4541    0.0000 N   0  0  0  0  0  0  0  0  0  0  0  0
   -5.0503    0.8666    0.0000 S   0  0  0  0  0  0  0  0  0  0  0  0
   -5.7648    0.4541    0.0000 C   0  0  0  0  0  0  0  0  0  0  0  0
   -4.3359   -0.3709    0.0000 C   0  0  0  0  0  0  0  0  0  0  0  0
   -4.6378    1.5811    0.0000 O   0  0  0  0  0  0  0  0  0  0  0  0
   -5.4628    1.5811    0.0000 O   0  0  0  0  0  0  0  0  0  0  0  0
    3.5877   -0.3428    0.0000 C   0  0  0  0  0  0  0  0  0  0  0  0
    4.3845   -0.5563    0.0000 O   0  0  0  0  0  0  0  0  0  0  0  0
    3.0043   -0.9261    0.0000 O   0  0  0  0  0  0  0  0  0  0  0  0
    4.9679    0.0271    0.0000 C   0  0  0  0  0  0  0  0  0  0  0  0
    5.7648   -0.1864    0.0000 C   0  0  0  0  0  0  0  0  0  0  0  0
    4.7544    0.8240    0.0000 C   0  0  0  0  0  0  0  0  0  0  0  0
  1  2  4  0  0  0  0
  2  3  4  0  0  0  0
  3  4  4  0  0  0  0
  4  5  4  0  0  0  0
  5  1  4  0  0  0  0
  3  6  1  0  0  0  0
  6  7  4  0  0  0  0
  7  8  4  0  0  0  0
  8  9  4  0  0  0  0
  9 10  4  0  0  0  0
 10 11  4  0  0  0  0
 11  6  4  0  0  0  0
  9 12  1  0  0  0  0
 11 13  1  0  0  0  0
 13 14  1  0  0  0  0
 13 15  2  0  0  0  0
 16 13  2  0  0  0  0
 14 17  1  0  0  0  0
 17 18  1  0  0  0  0
 17 19  1  0  0  0  0
 17 20  1  0  0  0  0
  5 21  1  0  0  0  0
 21 22  4  0  0  0  0
 22 23  4  0  0  0  0
 23 24  4  0  0  0  0
 24 25  4  0  0  0  0
 25 26  4  0  0  0  0
 26 21  4  0  0  0  0
 24 27  1  0  0  0  0
 12 28  1  0  0  0  0
 28 29  1  0  0  0  0
 12 30  1  0  0  0  0
 28 31  2  0  0  0  0
 32 28  2  0  0  0  0
 27 33  1  0  0  0  0
 33 34  1  0  0  0  0
 33 35  2  0  0  0  0
 34 36  1  0  0  0  0
 36 37  1  0  0  0  0
 36 38  1  0  0  0  0
M  END
> <From>
www.bindingDB.org

> <BindingDB Reactant_set_id>
1155305

> <Ligand InChI>
InChI=1S/C25H32N4O6S3/c1-16(2)35-24(30)27-18-10-8-17(9-11-18)23-26-15-21(36-23)20-13-12-19(29(6)37(7,31)32)14-22(20)38(33,34)28-25(3,4)5/h8-16,28H,1-7H3,(H,27,30)

> <Ligand InChI Key>
ZWHVBCLWUBKGKA-UHFFFAOYSA-N

> <BindingDB MonomerID>
546455

> <BindingDB Ligand Name>
US11291655, No J18

> <Target Name>
DNA repair protein RAD51 homolog 1

> <Target Source Organism According to Curator or DataSource>
Homo sapiens

> <Ki (nM)>


> <IC50 (nM)>


> <Kd (nM)>


> <EC50 (nM)>
<5000

> <kon (M-1-s-1)>


> <koff (s-1)>


> <pH>


> <Temp C>


> <Curation/DataSource>
US Patent

> <Article DOI>


> <BindingDB Entry DOI>
10.7270/Q2NG4TV0

> <PMID>


> <PubChem AID>
aid1806421

> <Patent Number>
US11291655

> <Authors>
Castro, AC; McComas, CC; Vacca, J

> <Date of publication>
4/5/2022

> <Date in BindingDB>
7/21/2022

> <Institution>
Cyteir Therapeutics, Inc.

> <Link to Ligand in BindingDB>
http://www.bindingdb.org/bind/chemsearch/marvin/MolStructure.jsp?monomerid=546455

> <Link to Ligand-Target Pair in BindingDB>
http://www.bindingdb.org/jsp/dbsearch/PrimarySearch_ki.jsp?energyterm=kJ/mole&tag=pol&polymerid=4676&target=DNA+repair+protein+RAD51+homolog+1&column=ki&startPg=0&Increment=50&submit=Search

> <Link to Ligand-Target Pair in BindingDB>
http://www.bindingdb.org/jsp/dbsearch/PrimarySearch_ki.jsp?energyterm=kJ/mole&tag=r21&monomerid=546455&enzyme=DNA+repair+protein+RAD51+homolog+1&column=ki&startPg=0&Increment=50&submit=Search

> <Ligand HET ID in PDB>


> <PDB ID(s) for Ligand-Target Complex>


> <PubChem CID of Ligand>
137411706

> <PubChem SID of Ligand>
469681151

> <ChEBI ID of Ligand>


> <ChEMBL ID of Ligand>


> <DrugBank ID of Ligand>


> <IUPHAR_GRAC ID of Ligand>


> <KEGG ID of Ligand>


> <ZINC ID of Ligand>


> <Number of Protein Chains in Target (bigger than 1 implies a multichain complex)>
1

> <BindingDB Target Chain Sequence>
MAMQMQLEANADTSVEEESFGPQPISRLEQCGINANDVKKLEEAGFHTVEAVAYAPKKELINIKGISEAKADKILAEAAKLVPMGFTTATEFHQRRSEIIQITTGSKELDKLLQGGIETGSITEMFGEFRTGKTQICHTLAVTCQLPIDRGGGEGKAMYIDTEGTFRPERLLAVAERYGLSGSDVLDNVAYARAFNTDHQTQLLYQASAMMVESRYALLIVDSATALYRTDYSGRGELSARQMHLARFLRMLLRLADEFGVAVVITNQVVAQVDGAAMFAADPKKPIGGNIIAHASTTRLYLRKGRGETRICKIYDSPCLPEAEAMFAINADGVGDAKD

> <PDB ID(s) of Target Chain>
1N0W,5JZC,5NP7,5NWL,8BQ2,8BR2,8BSC

> <UniProt (SwissProt) Recommended Name of Target Chain>
DNA repair protein RAD51 homolog 1

> <UniProt (SwissProt) Entry Name of Target Chain>
RAD51_HUMAN

> <UniProt (SwissProt) Primary ID of Target Chain>
Q06609

> <UniProt (SwissProt) Secondary ID(s) of Target Chain>
B0FXP0 B2R8T6 Q6FHX9 Q6ZNA8 Q9BV60

> <UniProt (SwissProt) Alternative ID(s) of Target Chain>


> <UniProt (TrEMBL) Submitted Name of Target Chain>


> <UniProt (TrEMBL) Entry Name of Target Chain>


> <UniProt (TrEMBL) Primary ID of Target Chain>


> <UniProt (TrEMBL) Secondary ID(s) of Target Chain>


> <UniProt (TrEMBL) Alternative ID(s) of Target Chain>


$$$$
00317001.cdx
  Mrv0541 07212217012D          

 37 40  0  0  0  0            999 V2000
   -0.1154    2.0929    0.0000 N   0  0  0  0  0  0  0  0  0  0  0  0
   -0.9404    2.0929    0.0000 C   0  0  0  0  0  0  0  0  0  0  0  0
   -1.1953    1.3082    0.0000 C   0  0  0  0  0  0  0  0  0  0  0  0
   -0.5279    0.8233    0.0000 S   0  0  0  0  0  0  0  0  0  0  0  0
    0.1395    1.3082    0.0000 C   0  0  0  0  0  0  0  0  0  0  0  0
   -1.9922    1.0947    0.0000 C   0  0  0  0  0  0  0  0  0  0  0  0
   -2.5756    1.6781    0.0000 C   0  0  0  0  0  0  0  0  0  0  0  0
   -3.3725    1.4645    0.0000 C   0  0  0  0  0  0  0  0  0  0  0  0
   -3.5860    0.6677    0.0000 C   0  0  0  0  0  0  0  0  0  0  0  0
   -3.0026    0.0843    0.0000 C   0  0  0  0  0  0  0  0  0  0  0  0
   -2.2057    0.2978    0.0000 C   0  0  0  0  0  0  0  0  0  0  0  0
   -1.6224   -0.2855    0.0000 S   0  0  0  0  0  0  0  0  0  0  0  0
   -1.8359   -1.0824    0.0000 N   0  0  0  0  0  0  0  0  0  0  0  0
   -0.8255   -0.4991    0.0000 O   0  0  0  0  0  0  0  0  0  0  0  0
   -1.0390    0.2978    0.0000 O   0  0  0  0  0  0  0  0  0  0  0  0
   -2.6328   -1.2960    0.0000 C   0  0  0  0  0  0  0  0  0  0  0  0
   -2.8463   -2.0929    0.0000 C   0  0  0  0  0  0  0  0  0  0  0  0
   -3.2162   -0.7126    0.0000 C   0  0  0  0  0  0  0  0  0  0  0  0
   -3.4297   -1.5095    0.0000 C   0  0  0  0  0  0  0  0  0  0  0  0
    0.9364    1.0947    0.0000 C   0  0  0  0  0  0  0  0  0  0  0  0
    1.1500    0.2978    0.0000 C   0  0  0  0  0  0  0  0  0  0  0  0
    1.9468    0.0843    0.0000 C   0  0  0  0  0  0  0  0  0  0  0  0
    2.5302    0.6677    0.0000 C   0  0  0  0  0  0  0  0  0  0  0  0
    2.3167    1.4645    0.0000 C   0  0  0  0  0  0  0  0  0  0  0  0
    1.5198    1.6781    0.0000 C   0  0  0  0  0  0  0  0  0  0  0  0
    3.3271    0.4541    0.0000 N   0  0  0  0  0  0  0  0  0  0  0  0
    3.5406   -0.3428    0.0000 C   0  0  0  0  0  0  0  0  0  0  0  0
    4.3375   -0.5563    0.0000 O   0  0  0  0  0  0  0  0  0  0  0  0
    2.9573   -0.9261    0.0000 O   0  0  0  0  0  0  0  0  0  0  0  0
    4.9209    0.0271    0.0000 C   0  0  0  0  0  0  0  0  0  0  0  0
    5.7178   -0.1864    0.0000 C   0  0  0  0  0  0  0  0  0  0  0  0
    4.7074    0.8240    0.0000 C   0  0  0  0  0  0  0  0  0  0  0  0
   -5.4628   -0.3305    0.0000 N   0  0  0  0  0  0  0  0  0  0  0  0
   -4.6378   -0.3305    0.0000 N   0  0  0  0  0  0  0  0  0  0  0  0
   -4.3829    0.4541    0.0000 C   0  0  0  0  0  0  0  0  0  0  0  0
   -5.0503    0.9390    0.0000 C   0  0  0  0  0  0  0  0  0  0  0  0
   -5.7178    0.4541    0.0000 C   0  0  0  0  0  0  0  0  0  0  0  0
  1  2  4  0  0  0  0
  2  3  4  0  0  0  0
  3  4  4  0  0  0  0
  4  5  4  0  0  0  0
  5  1  4  0  0  0  0
  3  6  1  0  0  0  0
  6  7  4  0  0  0  0
  7  8  4  0  0  0  0
  8  9  4  0  0  0  0
  9 10  4  0  0  0  0
 10 11  4  0  0  0  0
 11  6  4  0  0  0  0
  9 35  1  0  0  0  0
 11 12  1  0  0  0  0
 12 13  1  0  0  0  0
 12 14  2  0  0  0  0
 15 12  2  0  0  0  0
 13 16  1  0  0  0  0
 16 17  1  0  0  0  0
 16 18  1  0  0  0  0
 16 19  1  0  0  0  0
  5 20  1  0  0  0  0
 20 21  4  0  0  0  0
 21 22  4  0  0  0  0
 22 23  4  0  0  0  0
 23 24  4  0  0  0  0
 24 25  4  0  0  0  0
 25 20  4  0  0  0  0
 23 26  1  0  0  0  0
 26 27  1  0  0  0  0
 27 28  1  0  0  0  0
 27 29  2  0  0  0  0
 28 30  1  0  0  0  0
 30 31  1  0  0  0  0
 30 32  1  0  0  0  0
 33 34  4  0  0  0  0
 34 35  4  0  0  0  0
 35 36  4  0  0  0  0
 36 37  4  0  0  0  0
 37 33  4  0  0  0  0
M  STY  1   1 DAT
M  SAL   1  1  34
M  SDT   1 MRV_IMPLICIT_H                                        
M  SDD   1     0.0000    0.0000    DR    ALL  0       0  
M  SED   1 IMPL_H1
M  END
> <From>
www.bindingDB.org

> <BindingDB Reactant_set_id>
1155306

> <Ligand InChI>
InChI=1S/C26H29N5O4S2/c1-16(2)35-25(32)29-19-9-6-17(7-10-19)24-27-15-22(36-24)20-11-8-18(21-12-13-28-30-21)14-23(20)37(33,34)31-26(3,4)5/h6-16,31H,1-5H3,(H,28,30)(H,29,32)

> <Ligand InChI Key>
QYUHZGNKWHBFEW-UHFFFAOYSA-N

> <BindingDB MonomerID>
546456

> <BindingDB Ligand Name>
US11291655, No J2

> <Target Name>
DNA repair protein RAD51 homolog 1

> <Target Source Organism According to Curator or DataSource>
Homo sapiens

> <Ki (nM)>


> <IC50 (nM)>


> <Kd (nM)>


> <EC50 (nM)>
<5000

> <kon (M-1-s-1)>


> <koff (s-1)>


> <pH>


> <Temp C>


> <Curation/DataSource>
US Patent

> <Article DOI>


> <BindingDB Entry DOI>
10.7270/Q2NG4TV0

> <PMID>


> <PubChem AID>
aid1806421

> <Patent Number>
US11291655

> <Authors>
Castro, AC; McComas, CC; Vacca, J

> <Date of publication>
4/5/2022

> <Date in BindingDB>
7/21/2022

> <Institution>
Cyteir Therapeutics, Inc.

> <Link to Ligand in BindingDB>
http://www.bindingdb.org/bind/chemsearch/marvin/MolStructure.jsp?monomerid=546456

> <Link to Ligand-Target Pair in BindingDB>
http://www.bindingdb.org/jsp/dbsearch/PrimarySearch_ki.jsp?energyterm=kJ/mole&tag=pol&polymerid=4676&target=DNA+repair+protein+RAD51+homolog+1&column=ki&startPg=0&Increment=50&submit=Search

> <Link to Ligand-Target Pair in BindingDB>
http://www.bindingdb.org/jsp/dbsearch/PrimarySearch_ki.jsp?energyterm=kJ/mole&tag=r21&monomerid=546456&enzyme=DNA+repair+protein+RAD51+homolog+1&column=ki&startPg=0&Increment=50&submit=Search

> <Ligand HET ID in PDB>


> <PDB ID(s) for Ligand-Target Complex>


> <PubChem CID of Ligand>
137411698

> <PubChem SID of Ligand>
469681152

> <ChEBI ID of Ligand>


> <ChEMBL ID of Ligand>


> <DrugBank ID of Ligand>


> <IUPHAR_GRAC ID of Ligand>


> <KEGG ID of Ligand>


> <ZINC ID of Ligand>


> <Number of Protein Chains in Target (bigger than 1 implies a multichain complex)>
1

> <BindingDB Target Chain Sequence>
MAMQMQLEANADTSVEEESFGPQPISRLEQCGINANDVKKLEEAGFHTVEAVAYAPKKELINIKGISEAKADKILAEAAKLVPMGFTTATEFHQRRSEIIQITTGSKELDKLLQGGIETGSITEMFGEFRTGKTQICHTLAVTCQLPIDRGGGEGKAMYIDTEGTFRPERLLAVAERYGLSGSDVLDNVAYARAFNTDHQTQLLYQASAMMVESRYALLIVDSATALYRTDYSGRGELSARQMHLARFLRMLLRLADEFGVAVVITNQVVAQVDGAAMFAADPKKPIGGNIIAHASTTRLYLRKGRGETRICKIYDSPCLPEAEAMFAINADGVGDAKD

> <PDB ID(s) of Target Chain>
1N0W,5JZC,5NP7,5NWL,8BQ2,8BR2,8BSC

> <UniProt (SwissProt) Recommended Name of Target Chain>
DNA repair protein RAD51 homolog 1

> <UniProt (SwissProt) Entry Name of Target Chain>
RAD51_HUMAN

> <UniProt (SwissProt) Primary ID of Target Chain>
Q06609

> <UniProt (SwissProt) Secondary ID(s) of Target Chain>
B0FXP0 B2R8T6 Q6FHX9 Q6ZNA8 Q9BV60

> <UniProt (SwissProt) Alternative ID(s) of Target Chain>


> <UniProt (TrEMBL) Submitted Name of Target Chain>


> <UniProt (TrEMBL) Entry Name of Target Chain>


> <UniProt (TrEMBL) Primary ID of Target Chain>


> <UniProt (TrEMBL) Secondary ID(s) of Target Chain>


> <UniProt (TrEMBL) Alternative ID(s) of Target Chain>


$$$$
00318001.cdx
  Mrv0541 07212217012D          

 45 49  0  0  0  0            999 V2000
    1.3390    2.0929    0.0000 N   0  0  0  0  0  0  0  0  0  0  0  0
    0.5140    2.0929    0.0000 C   0  0  0  0  0  0  0  0  0  0  0  0
    0.2590    1.3082    0.0000 C   0  0  0  0  0  0  0  0  0  0  0  0
    0.9265    0.8233    0.0000 S   0  0  0  0  0  0  0  0  0  0  0  0
    1.5939    1.3082    0.0000 C   0  0  0  0  0  0  0  0  0  0  0  0
   -0.5379    1.0947    0.0000 C   0  0  0  0  0  0  0  0  0  0  0  0
   -1.1212    1.6781    0.0000 C   0  0  0  0  0  0  0  0  0  0  0  0
   -1.9181    1.4645    0.0000 C   0  0  0  0  0  0  0  0  0  0  0  0
   -2.1317    0.6677    0.0000 C   0  0  0  0  0  0  0  0  0  0  0  0
   -1.5483    0.0843    0.0000 C   0  0  0  0  0  0  0  0  0  0  0  0
   -0.7514    0.2978    0.0000 C   0  0  0  0  0  0  0  0  0  0  0  0
   -0.1680   -0.2855    0.0000 S   0  0  0  0  0  0  0  0  0  0  0  0
   -0.3816   -1.0824    0.0000 N   0  0  0  0  0  0  0  0  0  0  0  0
    0.6289   -0.4991    0.0000 O   0  0  0  0  0  0  0  0  0  0  0  0
    0.4153    0.2978    0.0000 O   0  0  0  0  0  0  0  0  0  0  0  0
   -1.1785   -1.2960    0.0000 C   0  0  0  0  0  0  0  0  0  0  0  0
   -1.3920   -2.0929    0.0000 C   0  0  0  0  0  0  0  0  0  0  0  0
   -1.7618   -0.7126    0.0000 C   0  0  0  0  0  0  0  0  0  0  0  0
   -1.9753   -1.5095    0.0000 C   0  0  0  0  0  0  0  0  0  0  0  0
    2.3908    1.0947    0.0000 C   0  0  0  0  0  0  0  0  0  0  0  0
    2.6043    0.2978    0.0000 C   0  0  0  0  0  0  0  0  0  0  0  0
    3.4012    0.0843    0.0000 C   0  0  0  0  0  0  0  0  0  0  0  0
    3.9846    0.6677    0.0000 C   0  0  0  0  0  0  0  0  0  0  0  0
    3.7710    1.4645    0.0000 C   0  0  0  0  0  0  0  0  0  0  0  0
    2.9741    1.6781    0.0000 C   0  0  0  0  0  0  0  0  0  0  0  0
    4.7814    0.4541    0.0000 N   0  0  0  0  0  0  0  0  0  0  0  0
    4.9950   -0.3428    0.0000 C   0  0  0  0  0  0  0  0  0  0  0  0
    5.7919   -0.5563    0.0000 O   0  0  0  0  0  0  0  0  0  0  0  0
    4.4116   -0.9261    0.0000 O   0  0  0  0  0  0  0  0  0  0  0  0
    6.3752    0.0271    0.0000 C   0  0  0  0  0  0  0  0  0  0  0  0
    7.1721   -0.1864    0.0000 C   0  0  0  0  0  0  0  0  0  0  0  0
    6.1617    0.8240    0.0000 C   0  0  0  0  0  0  0  0  0  0  0  0
   -4.1981    0.8666    0.0000 N   0  0  0  0  0  0  0  0  0  0  0  0
   -4.1981    0.0416    0.0000 C   0  0  0  0  0  0  0  0  0  0  0  0
   -3.4135   -0.2133    0.0000 C   0  0  0  0  0  0  0  0  0  0  0  0
   -2.9285    0.4541    0.0000 N   0  0  0  0  0  0  0  0  0  0  0  0
   -3.4135    1.1216    0.0000 C   0  0  0  0  0  0  0  0  0  0  0  0
   -3.0010    1.8360    0.0000 O   0  0  0  0  0  0  0  0  0  0  0  0
   -4.7814    1.4500    0.0000 C   0  0  0  0  0  0  0  0  0  0  0  0
   -5.5783    1.2365    0.0000 C   0  0  0  0  0  0  0  0  0  0  0  0
   -6.1617    1.8198    0.0000 C   0  0  0  0  0  0  0  0  0  0  0  0
   -6.9586    1.6063    0.0000 C   0  0  0  0  0  0  0  0  0  0  0  0
   -7.1721    0.8094    0.0000 C   0  0  0  0  0  0  0  0  0  0  0  0
   -6.5888    0.2261    0.0000 C   0  0  0  0  0  0  0  0  0  0  0  0
   -5.7919    0.4396    0.0000 C   0  0  0  0  0  0  0  0  0  0  0  0
  1  2  4  0  0  0  0
  2  3  4  0  0  0  0
  3  4  4  0  0  0  0
  4  5  4  0  0  0  0
  5  1  4  0  0  0  0
  3  6  1  0  0  0  0
  6  7  4  0  0  0  0
  7  8  4  0  0  0  0
  8  9  4  0  0  0  0
  9 10  4  0  0  0  0
 10 11  4  0  0  0  0
 11  6  4  0  0  0  0
  9 36  1  0  0  0  0
 11 12  1  0  0  0  0
 12 13  1  0  0  0  0
 12 14  2  0  0  0  0
 15 12  2  0  0  0  0
 13 16  1  0  0  0  0
 16 17  1  0  0  0  0
 16 18  1  0  0  0  0
 16 19  1  0  0  0  0
  5 20  1  0  0  0  0
 20 21  4  0  0  0  0
 21 22  4  0  0  0  0
 22 23  4  0  0  0  0
 23 24  4  0  0  0  0
 24 25  4  0  0  0  0
 25 20  4  0  0  0  0
 23 26  1  0  0  0  0
 26 27  1  0  0  0  0
 27 28  1  0  0  0  0
 27 29  2  0  0  0  0
 28 30  1  0  0  0  0
 30 31  1  0  0  0  0
 30 32  1  0  0  0  0
 33 34  1  0  0  0  0
 34 35  1  0  0  0  0
 35 36  1  0  0  0  0
 36 37  1  0  0  0  0
 37 33  1  0  0  0  0
 37 38  2  0  0  0  0
 33 39  1  0  0  0  0
 39 40  1  0  0  0  0
 40 41  4  0  0  0  0
 41 42  4  0  0  0  0
 42 43  4  0  0  0  0
 43 44  4  0  0  0  0
 44 45  4  0  0  0  0
 45 40  4  0  0  0  0
M  END
> <From>
www.bindingDB.org

> <BindingDB Reactant_set_id>
1155307

> <Ligand InChI>
InChI=1S/C33H37N5O5S2/c1-22(2)43-31(39)35-25-13-11-24(12-14-25)30-34-20-28(44-30)27-16-15-26(19-29(27)45(41,42)36-33(3,4)5)38-18-17-37(32(38)40)21-23-9-7-6-8-10-23/h6-16,19-20,22,36H,17-18,21H2,1-5H3,(H,35,39)

> <Ligand InChI Key>
LWYPNDGWZXOXAQ-UHFFFAOYSA-N

> <BindingDB MonomerID>
546457

> <BindingDB Ligand Name>
US11291655, No J21

> <Target Name>
DNA repair protein RAD51 homolog 1

> <Target Source Organism According to Curator or DataSource>
Homo sapiens

> <Ki (nM)>


> <IC50 (nM)>


> <Kd (nM)>


> <EC50 (nM)>
>10000

> <kon (M-1-s-1)>


> <koff (s-1)>


> <pH>


> <Temp C>


> <Curation/DataSource>
US Patent

> <Article DOI>


> <BindingDB Entry DOI>
10.7270/Q2NG4TV0

> <PMID>


> <PubChem AID>
aid1806421

> <Patent Number>
US11291655

> <Authors>
Castro, AC; McComas, CC; Vacca, J

> <Date of publication>
4/5/2022

> <Date in BindingDB>
7/21/2022

> <Institution>
Cyteir Therapeutics, Inc.

> <Link to Ligand in BindingDB>
http://www.bindingdb.org/bind/chemsearch/marvin/MolStructure.jsp?monomerid=546457

> <Link to Ligand-Target Pair in BindingDB>
http://www.bindingdb.org/jsp/dbsearch/PrimarySearch_ki.jsp?energyterm=kJ/mole&tag=pol&polymerid=4676&target=DNA+repair+protein+RAD51+homolog+1&column=ki&startPg=0&Increment=50&submit=Search

> <Link to Ligand-Target Pair in BindingDB>
http://www.bindingdb.org/jsp/dbsearch/PrimarySearch_ki.jsp?energyterm=kJ/mole&tag=r21&monomerid=546457&enzyme=DNA+repair+protein+RAD51+homolog+1&column=ki&startPg=0&Increment=50&submit=Search

> <Ligand HET ID in PDB>


> <PDB ID(s) for Ligand-Target Complex>


> <PubChem CID of Ligand>
137412026

> <PubChem SID of Ligand>
469681153

> <ChEBI ID of Ligand>


> <ChEMBL ID of Ligand>


> <DrugBank ID of Ligand>


> <IUPHAR_GRAC ID of Ligand>


> <KEGG ID of Ligand>


> <ZINC ID of Ligand>


> <Number of Protein Chains in Target (bigger than 1 implies a multichain complex)>
1

> <BindingDB Target Chain Sequence>
MAMQMQLEANADTSVEEESFGPQPISRLEQCGINANDVKKLEEAGFHTVEAVAYAPKKELINIKGISEAKADKILAEAAKLVPMGFTTATEFHQRRSEIIQITTGSKELDKLLQGGIETGSITEMFGEFRTGKTQICHTLAVTCQLPIDRGGGEGKAMYIDTEGTFRPERLLAVAERYGLSGSDVLDNVAYARAFNTDHQTQLLYQASAMMVESRYALLIVDSATALYRTDYSGRGELSARQMHLARFLRMLLRLADEFGVAVVITNQVVAQVDGAAMFAADPKKPIGGNIIAHASTTRLYLRKGRGETRICKIYDSPCLPEAEAMFAINADGVGDAKD

> <PDB ID(s) of Target Chain>
1N0W,5JZC,5NP7,5NWL,8BQ2,8BR2,8BSC

> <UniProt (SwissProt) Recommended Name of Target Chain>
DNA repair protein RAD51 homolog 1

> <UniProt (SwissProt) Entry Name of Target Chain>
RAD51_HUMAN

> <UniProt (SwissProt) Primary ID of Target Chain>
Q06609

> <UniProt (SwissProt) Secondary ID(s) of Target Chain>
B0FXP0 B2R8T6 Q6FHX9 Q6ZNA8 Q9BV60

> <UniProt (SwissProt) Alternative ID(s) of Target Chain>


> <UniProt (TrEMBL) Submitted Name of Target Chain>


> <UniProt (TrEMBL) Entry Name of Target Chain>


> <UniProt (TrEMBL) Primary ID of Target Chain>


> <UniProt (TrEMBL) Secondary ID(s) of Target Chain>


> <UniProt (TrEMBL) Alternative ID(s) of Target Chain>


$$$$
00319001.cdx
  Mrv0541 07212217012D          

 45 49  0  0  0  0            999 V2000
    1.2649    1.6944    0.0000 N   0  0  0  0  0  0  0  0  0  0  0  0
    0.4399    1.6944    0.0000 C   0  0  0  0  0  0  0  0  0  0  0  0
    0.1849    0.9098    0.0000 C   0  0  0  0  0  0  0  0  0  0  0  0
    0.8524    0.4249    0.0000 S   0  0  0  0  0  0  0  0  0  0  0  0
    1.5198    0.9098    0.0000 C   0  0  0  0  0  0  0  0  0  0  0  0
   -0.6120    0.6963    0.0000 C   0  0  0  0  0  0  0  0  0  0  0  0
   -1.1953    1.2796    0.0000 C   0  0  0  0  0  0  0  0  0  0  0  0
   -1.9922    1.0661    0.0000 C   0  0  0  0  0  0  0  0  0  0  0  0
   -2.2057    0.2692    0.0000 C   0  0  0  0  0  0  0  0  0  0  0  0
   -1.6224   -0.3142    0.0000 C   0  0  0  0  0  0  0  0  0  0  0  0
   -0.8255   -0.1006    0.0000 C   0  0  0  0  0  0  0  0  0  0  0  0
   -0.2421   -0.6840    0.0000 S   0  0  0  0  0  0  0  0  0  0  0  0
    2.3167    0.6963    0.0000 C   0  0  0  0  0  0  0  0  0  0  0  0
    2.5302   -0.1006    0.0000 C   0  0  0  0  0  0  0  0  0  0  0  0
    3.3271   -0.3142    0.0000 C   0  0  0  0  0  0  0  0  0  0  0  0
    3.9105    0.2692    0.0000 C   0  0  0  0  0  0  0  0  0  0  0  0
    3.6969    1.0661    0.0000 C   0  0  0  0  0  0  0  0  0  0  0  0
    2.9000    1.2796    0.0000 C   0  0  0  0  0  0  0  0  0  0  0  0
    4.7074    0.0557    0.0000 N   0  0  0  0  0  0  0  0  0  0  0  0
    4.9209   -0.7412    0.0000 C   0  0  0  0  0  0  0  0  0  0  0  0
    5.7178   -0.9547    0.0000 N   0  0  0  0  0  0  0  0  0  0  0  0
    4.3375   -1.3246    0.0000 S   0  0  0  0  0  0  0  0  0  0  0  0
    6.3011   -0.3714    0.0000 C   0  0  0  0  0  0  0  0  0  0  0  0
    7.0980   -0.5849    0.0000 C   0  0  0  0  0  0  0  0  0  0  0  0
    6.0876    0.4255    0.0000 C   0  0  0  0  0  0  0  0  0  0  0  0
   -4.0826   -0.7289    0.0000 C   0  0  0  0  0  0  0  0  0  0  0  0
   -3.2576   -0.7289    0.0000 C   0  0  0  0  0  0  0  0  0  0  0  0
   -3.0026    0.0557    0.0000 N   0  0  0  0  0  0  0  0  0  0  0  0
   -3.6701    0.5406    0.0000 C   0  0  0  0  0  0  0  0  0  0  0  0
   -4.3375    0.0557    0.0000 N   0  0  0  0  0  0  0  0  0  0  0  0
    0.3412   -1.2674    0.0000 N   0  0  0  0  0  0  0  0  0  0  0  0
    0.3412   -0.1006    0.0000 O   0  0  0  0  0  0  0  0  0  0  0  0
   -0.8255   -1.2674    0.0000 O   0  0  0  0  0  0  0  0  0  0  0  0
    1.1381   -1.0538    0.0000 C   0  0  0  0  0  0  0  0  0  0  0  0
    1.3516   -0.2569    0.0000 C   0  0  0  0  0  0  0  0  0  0  0  0
    1.7215   -1.6372    0.0000 C   0  0  0  0  0  0  0  0  0  0  0  0
    1.9350   -0.8403    0.0000 C   0  0  0  0  0  0  0  0  0  0  0  0
   -3.6701    1.3656    0.0000 O   0  0  0  0  0  0  0  0  0  0  0  0
   -5.1344    0.2692    0.0000 C   0  0  0  0  0  0  0  0  0  0  0  0
   -5.7178   -0.3142    0.0000 C   0  0  0  0  0  0  0  0  0  0  0  0
   -6.5147   -0.1006    0.0000 C   0  0  0  0  0  0  0  0  0  0  0  0
   -7.0980   -0.6840    0.0000 C   0  0  0  0  0  0  0  0  0  0  0  0
   -6.8845   -1.4809    0.0000 C   0  0  0  0  0  0  0  0  0  0  0  0
   -6.0876   -1.6944    0.0000 C   0  0  0  0  0  0  0  0  0  0  0  0
   -5.5042   -1.1110    0.0000 C   0  0  0  0  0  0  0  0  0  0  0  0
  1  2  4  0  0  0  0
  2  3  4  0  0  0  0
  3  4  4  0  0  0  0
  4  5  4  0  0  0  0
  5  1  4  0  0  0  0
  3  6  1  0  0  0  0
  6  7  4  0  0  0  0
  7  8  4  0  0  0  0
  8  9  4  0  0  0  0
  9 10  4  0  0  0  0
 10 11  4  0  0  0  0
 11  6  4  0  0  0  0
  9 28  1  0  0  0  0
 11 12  1  0  0  0  0
  5 13  1  0  0  0  0
 13 14  4  0  0  0  0
 14 15  4  0  0  0  0
 15 16  4  0  0  0  0
 16 17  4  0  0  0  0
 17 18  4  0  0  0  0
 18 13  4  0  0  0  0
 16 19  1  0  0  0  0
 19 20  1  0  0  0  0
 20 21  1  0  0  0  0
 20 22  2  0  0  0  0
 21 23  1  0  0  0  0
 23 24  1  0  0  0  0
 23 25  1  0  0  0  0
 26 27  1  0  0  0  0
 27 28  1  0  0  0  0
 28 29  1  0  0  0  0
 29 30  1  0  0  0  0
 30 26  1  0  0  0  0
 12 31  1  0  0  0  0
 12 32  2  0  0  0  0
 12 33  2  0  0  0  0
 31 34  1  0  0  0  0
 34 35  1  0  0  0  0
 34 36  1  0  0  0  0
 34 37  1  0  0  0  0
 29 38  2  0  0  0  0
 30 39  1  0  0  0  0
 39 40  1  0  0  0  0
 40 41  4  0  0  0  0
 41 42  4  0  0  0  0
 42 43  4  0  0  0  0
 43 44  4  0  0  0  0
 44 45  4  0  0  0  0
 45 40  4  0  0  0  0
M  END
> <From>
www.bindingDB.org

> <BindingDB Reactant_set_id>
1155308

> <Ligand InChI>
InChI=1S/C33H38N6O3S3/c1-22(2)35-31(43)36-25-13-11-24(12-14-25)30-34-20-28(44-30)27-16-15-26(19-29(27)45(41,42)37-33(3,4)5)39-18-17-38(32(39)40)21-23-9-7-6-8-10-23/h6-16,19-20,22,37H,17-18,21H2,1-5H3,(H2,35,36,43)

> <Ligand InChI Key>
KLRSSXBONQFIHF-UHFFFAOYSA-N

> <BindingDB MonomerID>
546458

> <BindingDB Ligand Name>
US11291655, No J22

> <Target Name>
DNA repair protein RAD51 homolog 1

> <Target Source Organism According to Curator or DataSource>
Homo sapiens

> <Ki (nM)>


> <IC50 (nM)>


> <Kd (nM)>


> <EC50 (nM)>
>10000

> <kon (M-1-s-1)>


> <koff (s-1)>


> <pH>


> <Temp C>


> <Curation/DataSource>
US Patent

> <Article DOI>


> <BindingDB Entry DOI>
10.7270/Q2NG4TV0

> <PMID>


> <PubChem AID>
aid1806421

> <Patent Number>
US11291655

> <Authors>
Castro, AC; McComas, CC; Vacca, J

> <Date of publication>
4/5/2022

> <Date in BindingDB>
7/21/2022

> <Institution>
Cyteir Therapeutics, Inc.

> <Link to Ligand in BindingDB>
http://www.bindingdb.org/bind/chemsearch/marvin/MolStructure.jsp?monomerid=546458

> <Link to Ligand-Target Pair in BindingDB>
http://www.bindingdb.org/jsp/dbsearch/PrimarySearch_ki.jsp?energyterm=kJ/mole&tag=pol&polymerid=4676&target=DNA+repair+protein+RAD51+homolog+1&column=ki&startPg=0&Increment=50&submit=Search

> <Link to Ligand-Target Pair in BindingDB>
http://www.bindingdb.org/jsp/dbsearch/PrimarySearch_ki.jsp?energyterm=kJ/mole&tag=r21&monomerid=546458&enzyme=DNA+repair+protein+RAD51+homolog+1&column=ki&startPg=0&Increment=50&submit=Search

> <Ligand HET ID in PDB>


> <PDB ID(s) for Ligand-Target Complex>


> <PubChem CID of Ligand>
137412027

> <PubChem SID of Ligand>
469681154

> <ChEBI ID of Ligand>


> <ChEMBL ID of Ligand>


> <DrugBank ID of Ligand>


> <IUPHAR_GRAC ID of Ligand>


> <KEGG ID of Ligand>


> <ZINC ID of Ligand>


> <Number of Protein Chains in Target (bigger than 1 implies a multichain complex)>
1

> <BindingDB Target Chain Sequence>
MAMQMQLEANADTSVEEESFGPQPISRLEQCGINANDVKKLEEAGFHTVEAVAYAPKKELINIKGISEAKADKILAEAAKLVPMGFTTATEFHQRRSEIIQITTGSKELDKLLQGGIETGSITEMFGEFRTGKTQICHTLAVTCQLPIDRGGGEGKAMYIDTEGTFRPERLLAVAERYGLSGSDVLDNVAYARAFNTDHQTQLLYQASAMMVESRYALLIVDSATALYRTDYSGRGELSARQMHLARFLRMLLRLADEFGVAVVITNQVVAQVDGAAMFAADPKKPIGGNIIAHASTTRLYLRKGRGETRICKIYDSPCLPEAEAMFAINADGVGDAKD

> <PDB ID(s) of Target Chain>
1N0W,5JZC,5NP7,5NWL,8BQ2,8BR2,8BSC

> <UniProt (SwissProt) Recommended Name of Target Chain>
DNA repair protein RAD51 homolog 1

> <UniProt (SwissProt) Entry Name of Target Chain>
RAD51_HUMAN

> <UniProt (SwissProt) Primary ID of Target Chain>
Q06609

> <UniProt (SwissProt) Secondary ID(s) of Target Chain>
B0FXP0 B2R8T6 Q6FHX9 Q6ZNA8 Q9BV60

> <UniProt (SwissProt) Alternative ID(s) of Target Chain>


> <UniProt (TrEMBL) Submitted Name of Target Chain>


> <UniProt (TrEMBL) Entry Name of Target Chain>


> <UniProt (TrEMBL) Primary ID of Target Chain>


> <UniProt (TrEMBL) Secondary ID(s) of Target Chain>


> <UniProt (TrEMBL) Alternative ID(s) of Target Chain>


$$$$
00320001.cdx
  Mrv0541 07212217012D          

 38 41  0  0  0  0            999 V2000
   -0.1154    2.0929    0.0000 N   0  0  0  0  0  0  0  0  0  0  0  0
   -0.9404    2.0929    0.0000 C   0  0  0  0  0  0  0  0  0  0  0  0
   -1.1953    1.3082    0.0000 C   0  0  0  0  0  0  0  0  0  0  0  0
   -0.5279    0.8233    0.0000 S   0  0  0  0  0  0  0  0  0  0  0  0
    0.1395    1.3082    0.0000 C   0  0  0  0  0  0  0  0  0  0  0  0
   -1.9922    1.0947    0.0000 C   0  0  0  0  0  0  0  0  0  0  0  0
   -2.5756    1.6781    0.0000 C   0  0  0  0  0  0  0  0  0  0  0  0
   -3.3725    1.4645    0.0000 C   0  0  0  0  0  0  0  0  0  0  0  0
   -3.5860    0.6677    0.0000 C   0  0  0  0  0  0  0  0  0  0  0  0
   -3.0026    0.0843    0.0000 C   0  0  0  0  0  0  0  0  0  0  0  0
   -2.2057    0.2978    0.0000 C   0  0  0  0  0  0  0  0  0  0  0  0
   -1.6224   -0.2855    0.0000 S   0  0  0  0  0  0  0  0  0  0  0  0
   -1.8359   -1.0824    0.0000 N   0  0  0  0  0  0  0  0  0  0  0  0
   -0.8255   -0.4991    0.0000 O   0  0  0  0  0  0  0  0  0  0  0  0
   -1.0390    0.2978    0.0000 O   0  0  0  0  0  0  0  0  0  0  0  0
   -2.6328   -1.2960    0.0000 C   0  0  0  0  0  0  0  0  0  0  0  0
   -2.8463   -2.0929    0.0000 C   0  0  0  0  0  0  0  0  0  0  0  0
   -3.2162   -0.7126    0.0000 C   0  0  0  0  0  0  0  0  0  0  0  0
   -3.4297   -1.5095    0.0000 C   0  0  0  0  0  0  0  0  0  0  0  0
    0.9364    1.0947    0.0000 C   0  0  0  0  0  0  0  0  0  0  0  0
    1.1500    0.2978    0.0000 C   0  0  0  0  0  0  0  0  0  0  0  0
    1.9468    0.0843    0.0000 C   0  0  0  0  0  0  0  0  0  0  0  0
    2.5302    0.6677    0.0000 C   0  0  0  0  0  0  0  0  0  0  0  0
    2.3167    1.4645    0.0000 C   0  0  0  0  0  0  0  0  0  0  0  0
    1.5198    1.6781    0.0000 C   0  0  0  0  0  0  0  0  0  0  0  0
    3.3271    0.4541    0.0000 N   0  0  0  0  0  0  0  0  0  0  0  0
    3.5406   -0.3428    0.0000 C   0  0  0  0  0  0  0  0  0  0  0  0
    4.3375   -0.5563    0.0000 O   0  0  0  0  0  0  0  0  0  0  0  0
    2.9573   -0.9261    0.0000 O   0  0  0  0  0  0  0  0  0  0  0  0
    4.9209    0.0271    0.0000 C   0  0  0  0  0  0  0  0  0  0  0  0
    5.7178   -0.1864    0.0000 C   0  0  0  0  0  0  0  0  0  0  0  0
    4.7074    0.8240    0.0000 C   0  0  0  0  0  0  0  0  0  0  0  0
   -5.4628   -0.3305    0.0000 C   0  0  0  0  0  0  0  0  0  0  0  0
   -4.6378   -0.3305    0.0000 C   0  0  0  0  0  0  0  0  0  0  0  0
   -4.3829    0.4541    0.0000 N   0  0  0  0  0  0  0  0  0  0  0  0
   -5.0503    0.9390    0.0000 C   0  0  0  0  0  0  0  0  0  0  0  0
   -5.7178    0.4541    0.0000 O   0  0  0  0  0  0  0  0  0  0  0  0
   -5.0503    1.7640    0.0000 O   0  0  0  0  0  0  0  0  0  0  0  0
  1  2  4  0  0  0  0
  2  3  4  0  0  0  0
  3  4  4  0  0  0  0
  4  5  4  0  0  0  0
  5  1  4  0  0  0  0
  3  6  1  0  0  0  0
  6  7  4  0  0  0  0
  7  8  4  0  0  0  0
  8  9  4  0  0  0  0
  9 10  4  0  0  0  0
 10 11  4  0  0  0  0
 11  6  4  0  0  0  0
  9 35  1  0  0  0  0
 11 12  1  0  0  0  0
 12 13  1  0  0  0  0
 12 14  2  0  0  0  0
 15 12  2  0  0  0  0
 13 16  1  0  0  0  0
 16 17  1  0  0  0  0
 16 18  1  0  0  0  0
 16 19  1  0  0  0  0
  5 20  1  0  0  0  0
 20 21  4  0  0  0  0
 21 22  4  0  0  0  0
 22 23  4  0  0  0  0
 23 24  4  0  0  0  0
 24 25  4  0  0  0  0
 25 20  4  0  0  0  0
 23 26  1  0  0  0  0
 26 27  1  0  0  0  0
 27 28  1  0  0  0  0
 27 29  2  0  0  0  0
 28 30  1  0  0  0  0
 30 31  1  0  0  0  0
 30 32  1  0  0  0  0
 33 34  1  0  0  0  0
 34 35  1  0  0  0  0
 35 36  1  0  0  0  0
 36 37  1  0  0  0  0
 37 33  1  0  0  0  0
 36 38  2  0  0  0  0
M  END
> <From>
www.bindingDB.org

> <BindingDB Reactant_set_id>
1155309

> <Ligand InChI>
InChI=1S/C26H30N4O6S2/c1-16(2)36-24(31)28-18-8-6-17(7-9-18)23-27-15-21(37-23)20-11-10-19(30-12-13-35-25(30)32)14-22(20)38(33,34)29-26(3,4)5/h6-11,14-16,29H,12-13H2,1-5H3,(H,28,31)

> <Ligand InChI Key>
IHOUMCGKWXKSMH-UHFFFAOYSA-N

> <BindingDB MonomerID>
546459

> <BindingDB Ligand Name>
US11291655, No J23

> <Target Name>
DNA repair protein RAD51 homolog 1

> <Target Source Organism According to Curator or DataSource>
Homo sapiens

> <Ki (nM)>


> <IC50 (nM)>


> <Kd (nM)>


> <EC50 (nM)>
<5000

> <kon (M-1-s-1)>


> <koff (s-1)>


> <pH>


> <Temp C>


> <Curation/DataSource>
US Patent

> <Article DOI>


> <BindingDB Entry DOI>
10.7270/Q2NG4TV0

> <PMID>


> <PubChem AID>
aid1806421

> <Patent Number>
US11291655

> <Authors>
Castro, AC; McComas, CC; Vacca, J

> <Date of publication>
4/5/2022

> <Date in BindingDB>
7/21/2022

> <Institution>
Cyteir Therapeutics, Inc.

> <Link to Ligand in BindingDB>
http://www.bindingdb.org/bind/chemsearch/marvin/MolStructure.jsp?monomerid=546459

> <Link to Ligand-Target Pair in BindingDB>
http://www.bindingdb.org/jsp/dbsearch/PrimarySearch_ki.jsp?energyterm=kJ/mole&tag=pol&polymerid=4676&target=DNA+repair+protein+RAD51+homolog+1&column=ki&startPg=0&Increment=50&submit=Search

> <Link to Ligand-Target Pair in BindingDB>
http://www.bindingdb.org/jsp/dbsearch/PrimarySearch_ki.jsp?energyterm=kJ/mole&tag=r21&monomerid=546459&enzyme=DNA+repair+protein+RAD51+homolog+1&column=ki&startPg=0&Increment=50&submit=Search

> <Ligand HET ID in PDB>


> <PDB ID(s) for Ligand-Target Complex>


> <PubChem CID of Ligand>
137408614

> <PubChem SID of Ligand>
469681155

> <ChEBI ID of Ligand>


> <ChEMBL ID of Ligand>


> <DrugBank ID of Ligand>


> <IUPHAR_GRAC ID of Ligand>


> <KEGG ID of Ligand>


> <ZINC ID of Ligand>


> <Number of Protein Chains in Target (bigger than 1 implies a multichain complex)>
1

> <BindingDB Target Chain Sequence>
MAMQMQLEANADTSVEEESFGPQPISRLEQCGINANDVKKLEEAGFHTVEAVAYAPKKELINIKGISEAKADKILAEAAKLVPMGFTTATEFHQRRSEIIQITTGSKELDKLLQGGIETGSITEMFGEFRTGKTQICHTLAVTCQLPIDRGGGEGKAMYIDTEGTFRPERLLAVAERYGLSGSDVLDNVAYARAFNTDHQTQLLYQASAMMVESRYALLIVDSATALYRTDYSGRGELSARQMHLARFLRMLLRLADEFGVAVVITNQVVAQVDGAAMFAADPKKPIGGNIIAHASTTRLYLRKGRGETRICKIYDSPCLPEAEAMFAINADGVGDAKD

> <PDB ID(s) of Target Chain>
1N0W,5JZC,5NP7,5NWL,8BQ2,8BR2,8BSC

> <UniProt (SwissProt) Recommended Name of Target Chain>
DNA repair protein RAD51 homolog 1

> <UniProt (SwissProt) Entry Name of Target Chain>
RAD51_HUMAN

> <UniProt (SwissProt) Primary ID of Target Chain>
Q06609

> <UniProt (SwissProt) Secondary ID(s) of Target Chain>
B0FXP0 B2R8T6 Q6FHX9 Q6ZNA8 Q9BV60

> <UniProt (SwissProt) Alternative ID(s) of Target Chain>


> <UniProt (TrEMBL) Submitted Name of Target Chain>


> <UniProt (TrEMBL) Entry Name of Target Chain>


> <UniProt (TrEMBL) Primary ID of Target Chain>


> <UniProt (TrEMBL) Secondary ID(s) of Target Chain>


> <UniProt (TrEMBL) Alternative ID(s) of Target Chain>


$$$$
00321001.cdx
  Mrv0541 07212217012D          

 39 42  0  0  0  0            999 V2000
    0.0141    2.0929    0.0000 N   0  0  0  0  0  0  0  0  0  0  0  0
   -0.8109    2.0929    0.0000 C   0  0  0  0  0  0  0  0  0  0  0  0
   -1.0659    1.3082    0.0000 C   0  0  0  0  0  0  0  0  0  0  0  0
   -0.3984    0.8233    0.0000 S   0  0  0  0  0  0  0  0  0  0  0  0
    0.2690    1.3082    0.0000 C   0  0  0  0  0  0  0  0  0  0  0  0
   -1.8628    1.0947    0.0000 C   0  0  0  0  0  0  0  0  0  0  0  0
   -2.4461    1.6781    0.0000 C   0  0  0  0  0  0  0  0  0  0  0  0
   -3.2430    1.4645    0.0000 C   0  0  0  0  0  0  0  0  0  0  0  0
   -3.4565    0.6677    0.0000 C   0  0  0  0  0  0  0  0  0  0  0  0
   -2.8732    0.0843    0.0000 C   0  0  0  0  0  0  0  0  0  0  0  0
   -2.0763    0.2978    0.0000 C   0  0  0  0  0  0  0  0  0  0  0  0
   -1.4929   -0.2855    0.0000 S   0  0  0  0  0  0  0  0  0  0  0  0
   -1.7065   -1.0824    0.0000 N   0  0  0  0  0  0  0  0  0  0  0  0
   -0.6960   -0.4991    0.0000 O   0  0  0  0  0  0  0  0  0  0  0  0
   -0.9096    0.2978    0.0000 O   0  0  0  0  0  0  0  0  0  0  0  0
   -2.5033   -1.2960    0.0000 C   0  0  0  0  0  0  0  0  0  0  0  0
   -2.7169   -2.0929    0.0000 C   0  0  0  0  0  0  0  0  0  0  0  0
   -3.0867   -0.7126    0.0000 C   0  0  0  0  0  0  0  0  0  0  0  0
   -3.3002   -1.5095    0.0000 C   0  0  0  0  0  0  0  0  0  0  0  0
    1.0659    1.0947    0.0000 C   0  0  0  0  0  0  0  0  0  0  0  0
    1.2794    0.2978    0.0000 C   0  0  0  0  0  0  0  0  0  0  0  0
    2.0763    0.0843    0.0000 C   0  0  0  0  0  0  0  0  0  0  0  0
    2.6597    0.6677    0.0000 C   0  0  0  0  0  0  0  0  0  0  0  0
    2.4461    1.4645    0.0000 C   0  0  0  0  0  0  0  0  0  0  0  0
    1.6492    1.6781    0.0000 C   0  0  0  0  0  0  0  0  0  0  0  0
    3.4566    0.4541    0.0000 N   0  0  0  0  0  0  0  0  0  0  0  0
    3.6701   -0.3428    0.0000 C   0  0  0  0  0  0  0  0  0  0  0  0
    4.4670   -0.5563    0.0000 O   0  0  0  0  0  0  0  0  0  0  0  0
    3.0867   -0.9261    0.0000 O   0  0  0  0  0  0  0  0  0  0  0  0
    5.0503    0.0271    0.0000 C   0  0  0  0  0  0  0  0  0  0  0  0
    5.8472   -0.1864    0.0000 C   0  0  0  0  0  0  0  0  0  0  0  0
    4.8368    0.8240    0.0000 C   0  0  0  0  0  0  0  0  0  0  0  0
   -4.2534    0.4541    0.0000 N   0  0  0  0  0  0  0  0  0  0  0  0
   -4.8368    1.0375    0.0000 C   0  0  0  0  0  0  0  0  0  0  0  0
   -5.6337    0.8240    0.0000 O   0  0  0  0  0  0  0  0  0  0  0  0
   -5.8472    0.0271    0.0000 C   0  0  0  0  0  0  0  0  0  0  0  0
   -5.2639   -0.5563    0.0000 C   0  0  0  0  0  0  0  0  0  0  0  0
   -4.4670   -0.3428    0.0000 C   0  0  0  0  0  0  0  0  0  0  0  0
   -4.6233    1.8344    0.0000 O   0  0  0  0  0  0  0  0  0  0  0  0
  1  2  4  0  0  0  0
  2  3  4  0  0  0  0
  3  4  4  0  0  0  0
  4  5  4  0  0  0  0
  5  1  4  0  0  0  0
  3  6  1  0  0  0  0
  6  7  4  0  0  0  0
  7  8  4  0  0  0  0
  8  9  4  0  0  0  0
  9 10  4  0  0  0  0
 10 11  4  0  0  0  0
 11  6  4  0  0  0  0
  9 33  1  0  0  0  0
 11 12  1  0  0  0  0
 12 13  1  0  0  0  0
 12 14  2  0  0  0  0
 15 12  2  0  0  0  0
 13 16  1  0  0  0  0
 16 17  1  0  0  0  0
 16 18  1  0  0  0  0
 16 19  1  0  0  0  0
  5 20  1  0  0  0  0
 20 21  4  0  0  0  0
 21 22  4  0  0  0  0
 22 23  4  0  0  0  0
 23 24  4  0  0  0  0
 24 25  4  0  0  0  0
 25 20  4  0  0  0  0
 23 26  1  0  0  0  0
 26 27  1  0  0  0  0
 27 28  1  0  0  0  0
 27 29  2  0  0  0  0
 28 30  1  0  0  0  0
 30 31  1  0  0  0  0
 30 32  1  0  0  0  0
 33 34  1  0  0  0  0
 34 35  1  0  0  0  0
 35 36  1  0  0  0  0
 36 37  1  0  0  0  0
 37 38  1  0  0  0  0
 38 33  1  0  0  0  0
 34 39  2  0  0  0  0
M  END
> <From>
www.bindingDB.org

> <BindingDB Reactant_set_id>
1155310

> <Ligand InChI>
InChI=1S/C27H32N4O6S2/c1-17(2)37-25(32)29-19-9-7-18(8-10-19)24-28-16-22(38-24)21-12-11-20(31-13-6-14-36-26(31)33)15-23(21)39(34,35)30-27(3,4)5/h7-12,15-17,30H,6,13-14H2,1-5H3,(H,29,32)

> <Ligand InChI Key>
IZECXCXQSBJFGJ-UHFFFAOYSA-N

> <BindingDB MonomerID>
546460

> <BindingDB Ligand Name>
US11291655, No J24

> <Target Name>
DNA repair protein RAD51 homolog 1

> <Target Source Organism According to Curator or DataSource>
Homo sapiens

> <Ki (nM)>


> <IC50 (nM)>


> <Kd (nM)>


> <EC50 (nM)>
<5000

> <kon (M-1-s-1)>


> <koff (s-1)>


> <pH>


> <Temp C>


> <Curation/DataSource>
US Patent

> <Article DOI>


> <BindingDB Entry DOI>
10.7270/Q2NG4TV0

> <PMID>


> <PubChem AID>
aid1806421

> <Patent Number>
US11291655

> <Authors>
Castro, AC; McComas, CC; Vacca, J

> <Date of publication>
4/5/2022

> <Date in BindingDB>
7/21/2022

> <Institution>
Cyteir Therapeutics, Inc.

> <Link to Ligand in BindingDB>
http://www.bindingdb.org/bind/chemsearch/marvin/MolStructure.jsp?monomerid=546460

> <Link to Ligand-Target Pair in BindingDB>
http://www.bindingdb.org/jsp/dbsearch/PrimarySearch_ki.jsp?energyterm=kJ/mole&tag=pol&polymerid=4676&target=DNA+repair+protein+RAD51+homolog+1&column=ki&startPg=0&Increment=50&submit=Search

> <Link to Ligand-Target Pair in BindingDB>
http://www.bindingdb.org/jsp/dbsearch/PrimarySearch_ki.jsp?energyterm=kJ/mole&tag=r21&monomerid=546460&enzyme=DNA+repair+protein+RAD51+homolog+1&column=ki&startPg=0&Increment=50&submit=Search

> <Ligand HET ID in PDB>


> <PDB ID(s) for Ligand-Target Complex>


> <PubChem CID of Ligand>
137408646

> <PubChem SID of Ligand>
469681156

> <ChEBI ID of Ligand>


> <ChEMBL ID of Ligand>


> <DrugBank ID of Ligand>


> <IUPHAR_GRAC ID of Ligand>


> <KEGG ID of Ligand>


> <ZINC ID of Ligand>


> <Number of Protein Chains in Target (bigger than 1 implies a multichain complex)>
1

> <BindingDB Target Chain Sequence>
MAMQMQLEANADTSVEEESFGPQPISRLEQCGINANDVKKLEEAGFHTVEAVAYAPKKELINIKGISEAKADKILAEAAKLVPMGFTTATEFHQRRSEIIQITTGSKELDKLLQGGIETGSITEMFGEFRTGKTQICHTLAVTCQLPIDRGGGEGKAMYIDTEGTFRPERLLAVAERYGLSGSDVLDNVAYARAFNTDHQTQLLYQASAMMVESRYALLIVDSATALYRTDYSGRGELSARQMHLARFLRMLLRLADEFGVAVVITNQVVAQVDGAAMFAADPKKPIGGNIIAHASTTRLYLRKGRGETRICKIYDSPCLPEAEAMFAINADGVGDAKD

> <PDB ID(s) of Target Chain>
1N0W,5JZC,5NP7,5NWL,8BQ2,8BR2,8BSC

> <UniProt (SwissProt) Recommended Name of Target Chain>
DNA repair protein RAD51 homolog 1

> <UniProt (SwissProt) Entry Name of Target Chain>
RAD51_HUMAN

> <UniProt (SwissProt) Primary ID of Target Chain>
Q06609

> <UniProt (SwissProt) Secondary ID(s) of Target Chain>
B0FXP0 B2R8T6 Q6FHX9 Q6ZNA8 Q9BV60

> <UniProt (SwissProt) Alternative ID(s) of Target Chain>


> <UniProt (TrEMBL) Submitted Name of Target Chain>


> <UniProt (TrEMBL) Entry Name of Target Chain>


> <UniProt (TrEMBL) Primary ID of Target Chain>


> <UniProt (TrEMBL) Secondary ID(s) of Target Chain>


> <UniProt (TrEMBL) Alternative ID(s) of Target Chain>


$$$$
00322001.cdx
  Mrv0541 07212217012D          

 37 39  0  0  0  0            999 V2000
   -0.0573    2.0929    0.0000 N   0  0  0  0  0  0  0  0  0  0  0  0
   -0.8823    2.0929    0.0000 C   0  0  0  0  0  0  0  0  0  0  0  0
   -1.1373    1.3082    0.0000 C   0  0  0  0  0  0  0  0  0  0  0  0
   -0.4698    0.8233    0.0000 S   0  0  0  0  0  0  0  0  0  0  0  0
    0.1976    1.3082    0.0000 C   0  0  0  0  0  0  0  0  0  0  0  0
   -1.9341    1.0947    0.0000 C   0  0  0  0  0  0  0  0  0  0  0  0
   -2.5175    1.6781    0.0000 C   0  0  0  0  0  0  0  0  0  0  0  0
   -3.3144    1.4645    0.0000 C   0  0  0  0  0  0  0  0  0  0  0  0
   -3.5279    0.6677    0.0000 C   0  0  0  0  0  0  0  0  0  0  0  0
   -2.9446    0.0843    0.0000 C   0  0  0  0  0  0  0  0  0  0  0  0
   -2.1477    0.2978    0.0000 C   0  0  0  0  0  0  0  0  0  0  0  0
   -1.5643   -0.2855    0.0000 S   0  0  0  0  0  0  0  0  0  0  0  0
   -1.7778   -1.0824    0.0000 N   0  0  0  0  0  0  0  0  0  0  0  0
   -0.7674   -0.4991    0.0000 O   0  0  0  0  0  0  0  0  0  0  0  0
   -0.9809    0.2978    0.0000 O   0  0  0  0  0  0  0  0  0  0  0  0
   -2.5747   -1.2960    0.0000 C   0  0  0  0  0  0  0  0  0  0  0  0
   -2.7883   -2.0929    0.0000 C   0  0  0  0  0  0  0  0  0  0  0  0
   -3.1581   -0.7126    0.0000 C   0  0  0  0  0  0  0  0  0  0  0  0
   -3.3716   -1.5095    0.0000 C   0  0  0  0  0  0  0  0  0  0  0  0
    0.9945    1.0947    0.0000 C   0  0  0  0  0  0  0  0  0  0  0  0
    1.2080    0.2978    0.0000 C   0  0  0  0  0  0  0  0  0  0  0  0
    2.0049    0.0843    0.0000 C   0  0  0  0  0  0  0  0  0  0  0  0
    2.5883    0.6677    0.0000 C   0  0  0  0  0  0  0  0  0  0  0  0
    2.3748    1.4645    0.0000 C   0  0  0  0  0  0  0  0  0  0  0  0
    1.5779    1.6781    0.0000 C   0  0  0  0  0  0  0  0  0  0  0  0
    3.3852    0.4541    0.0000 N   0  0  0  0  0  0  0  0  0  0  0  0
    3.5987   -0.3428    0.0000 C   0  0  0  0  0  0  0  0  0  0  0  0
    4.3956   -0.5563    0.0000 O   0  0  0  0  0  0  0  0  0  0  0  0
    3.0153   -0.9261    0.0000 O   0  0  0  0  0  0  0  0  0  0  0  0
    4.9790    0.0271    0.0000 C   0  0  0  0  0  0  0  0  0  0  0  0
    5.7758   -0.1864    0.0000 C   0  0  0  0  0  0  0  0  0  0  0  0
    4.7654    0.8240    0.0000 C   0  0  0  0  0  0  0  0  0  0  0  0
   -4.3248    0.4541    0.0000 N   0  0  0  0  0  0  0  0  0  0  0  0
   -4.5383   -0.3428    0.0000 C   0  0  0  0  0  0  0  0  0  0  0  0
   -5.3633   -0.3428    0.0000 C   0  0  0  0  0  0  0  0  0  0  0  0
   -5.7758   -1.0572    0.0000 C   0  0  0  0  0  0  0  0  0  0  0  0
   -5.7758    0.3717    0.0000 O   0  0  0  0  0  0  0  0  0  0  0  0
  1  2  4  0  0  0  0
  2  3  4  0  0  0  0
  3  4  4  0  0  0  0
  4  5  4  0  0  0  0
  5  1  4  0  0  0  0
  3  6  1  0  0  0  0
  6  7  4  0  0  0  0
  7  8  4  0  0  0  0
  8  9  4  0  0  0  0
  9 10  4  0  0  0  0
 10 11  4  0  0  0  0
 11  6  4  0  0  0  0
  9 33  1  0  0  0  0
 11 12  1  0  0  0  0
 12 13  1  0  0  0  0
 12 14  2  0  0  0  0
 15 12  2  0  0  0  0
 13 16  1  0  0  0  0
 16 17  1  0  0  0  0
 16 18  1  0  0  0  0
 16 19  1  0  0  0  0
  5 20  1  0  0  0  0
 20 21  4  0  0  0  0
 21 22  4  0  0  0  0
 22 23  4  0  0  0  0
 23 24  4  0  0  0  0
 24 25  4  0  0  0  0
 25 20  4  0  0  0  0
 23 26  1  0  0  0  0
 26 27  1  0  0  0  0
 27 28  1  0  0  0  0
 27 29  2  0  0  0  0
 28 30  1  0  0  0  0
 30 31  1  0  0  0  0
 30 32  1  0  0  0  0
 33 34  1  0  0  0  0
 34 35  1  0  0  0  0
 35 36  1  0  0  0  0
 35 37  1  0  0  0  0
M  END
> <From>
www.bindingDB.org

> <BindingDB Reactant_set_id>
1155311

> <Ligand InChI>
InChI=1S/C26H34N4O5S2/c1-16(2)35-25(32)29-19-9-7-18(8-10-19)24-28-15-22(36-24)21-12-11-20(27-14-17(3)31)13-23(21)37(33,34)30-26(4,5)6/h7-13,15-17,27,30-31H,14H2,1-6H3,(H,29,32)

> <Ligand InChI Key>
FTBNVSKOFBIJBI-UHFFFAOYSA-N

> <BindingDB MonomerID>
546461

> <BindingDB Ligand Name>
US11291655, No J25

> <Target Name>
DNA repair protein RAD51 homolog 1

> <Target Source Organism According to Curator or DataSource>
Homo sapiens

> <Ki (nM)>


> <IC50 (nM)>


> <Kd (nM)>


> <EC50 (nM)>
<5000

> <kon (M-1-s-1)>


> <koff (s-1)>


> <pH>


> <Temp C>


> <Curation/DataSource>
US Patent

> <Article DOI>


> <BindingDB Entry DOI>
10.7270/Q2NG4TV0

> <PMID>


> <PubChem AID>
aid1806421

> <Patent Number>
US11291655

> <Authors>
Castro, AC; McComas, CC; Vacca, J

> <Date of publication>
4/5/2022

> <Date in BindingDB>
7/21/2022

> <Institution>
Cyteir Therapeutics, Inc.

> <Link to Ligand in BindingDB>
http://www.bindingdb.org/bind/chemsearch/marvin/MolStructure.jsp?monomerid=546461

> <Link to Ligand-Target Pair in BindingDB>
http://www.bindingdb.org/jsp/dbsearch/PrimarySearch_ki.jsp?energyterm=kJ/mole&tag=pol&polymerid=4676&target=DNA+repair+protein+RAD51+homolog+1&column=ki&startPg=0&Increment=50&submit=Search

> <Link to Ligand-Target Pair in BindingDB>
http://www.bindingdb.org/jsp/dbsearch/PrimarySearch_ki.jsp?energyterm=kJ/mole&tag=r21&monomerid=546461&enzyme=DNA+repair+protein+RAD51+homolog+1&column=ki&startPg=0&Increment=50&submit=Search

> <Ligand HET ID in PDB>


> <PDB ID(s) for Ligand-Target Complex>


> <PubChem CID of Ligand>
137412067

> <PubChem SID of Ligand>
469681157

> <ChEBI ID of Ligand>


> <ChEMBL ID of Ligand>


> <DrugBank ID of Ligand>


> <IUPHAR_GRAC ID of Ligand>


> <KEGG ID of Ligand>


> <ZINC ID of Ligand>


> <Number of Protein Chains in Target (bigger than 1 implies a multichain complex)>
1

> <BindingDB Target Chain Sequence>
MAMQMQLEANADTSVEEESFGPQPISRLEQCGINANDVKKLEEAGFHTVEAVAYAPKKELINIKGISEAKADKILAEAAKLVPMGFTTATEFHQRRSEIIQITTGSKELDKLLQGGIETGSITEMFGEFRTGKTQICHTLAVTCQLPIDRGGGEGKAMYIDTEGTFRPERLLAVAERYGLSGSDVLDNVAYARAFNTDHQTQLLYQASAMMVESRYALLIVDSATALYRTDYSGRGELSARQMHLARFLRMLLRLADEFGVAVVITNQVVAQVDGAAMFAADPKKPIGGNIIAHASTTRLYLRKGRGETRICKIYDSPCLPEAEAMFAINADGVGDAKD

> <PDB ID(s) of Target Chain>
1N0W,5JZC,5NP7,5NWL,8BQ2,8BR2,8BSC

> <UniProt (SwissProt) Recommended Name of Target Chain>
DNA repair protein RAD51 homolog 1

> <UniProt (SwissProt) Entry Name of Target Chain>
RAD51_HUMAN

> <UniProt (SwissProt) Primary ID of Target Chain>
Q06609

> <UniProt (SwissProt) Secondary ID(s) of Target Chain>
B0FXP0 B2R8T6 Q6FHX9 Q6ZNA8 Q9BV60

> <UniProt (SwissProt) Alternative ID(s) of Target Chain>


> <UniProt (TrEMBL) Submitted Name of Target Chain>


> <UniProt (TrEMBL) Entry Name of Target Chain>


> <UniProt (TrEMBL) Primary ID of Target Chain>


> <UniProt (TrEMBL) Secondary ID(s) of Target Chain>


> <UniProt (TrEMBL) Alternative ID(s) of Target Chain>


$$$$
00323001.cdx
  Mrv0541 07212217012D          

 39 42  0  0  0  0            999 V2000
   -0.0366    2.0929    0.0000 N   0  0  0  0  0  0  0  0  0  0  0  0
   -0.8616    2.0929    0.0000 C   0  0  0  0  0  0  0  0  0  0  0  0
   -1.1166    1.3082    0.0000 C   0  0  0  0  0  0  0  0  0  0  0  0
   -0.4491    0.8233    0.0000 S   0  0  0  0  0  0  0  0  0  0  0  0
    0.2183    1.3082    0.0000 C   0  0  0  0  0  0  0  0  0  0  0  0
   -1.9134    1.0947    0.0000 C   0  0  0  0  0  0  0  0  0  0  0  0
   -2.4968    1.6781    0.0000 C   0  0  0  0  0  0  0  0  0  0  0  0
   -3.2937    1.4645    0.0000 C   0  0  0  0  0  0  0  0  0  0  0  0
   -3.5072    0.6677    0.0000 C   0  0  0  0  0  0  0  0  0  0  0  0
   -2.9239    0.0843    0.0000 C   0  0  0  0  0  0  0  0  0  0  0  0
   -2.1270    0.2978    0.0000 C   0  0  0  0  0  0  0  0  0  0  0  0
   -1.5436   -0.2855    0.0000 S   0  0  0  0  0  0  0  0  0  0  0  0
   -1.7571   -1.0824    0.0000 N   0  0  0  0  0  0  0  0  0  0  0  0
   -0.7467   -0.4991    0.0000 O   0  0  0  0  0  0  0  0  0  0  0  0
   -0.9602    0.2978    0.0000 O   0  0  0  0  0  0  0  0  0  0  0  0
   -2.5540   -1.2960    0.0000 C   0  0  0  0  0  0  0  0  0  0  0  0
   -2.7675   -2.0929    0.0000 C   0  0  0  0  0  0  0  0  0  0  0  0
   -3.1374   -0.7126    0.0000 C   0  0  0  0  0  0  0  0  0  0  0  0
   -3.3509   -1.5095    0.0000 C   0  0  0  0  0  0  0  0  0  0  0  0
    1.0152    1.0947    0.0000 C   0  0  0  0  0  0  0  0  0  0  0  0
    1.2287    0.2978    0.0000 C   0  0  0  0  0  0  0  0  0  0  0  0
    2.0256    0.0843    0.0000 C   0  0  0  0  0  0  0  0  0  0  0  0
    2.6090    0.6677    0.0000 C   0  0  0  0  0  0  0  0  0  0  0  0
    2.3955    1.4645    0.0000 C   0  0  0  0  0  0  0  0  0  0  0  0
    1.5986    1.6781    0.0000 C   0  0  0  0  0  0  0  0  0  0  0  0
    3.4059    0.4541    0.0000 N   0  0  0  0  0  0  0  0  0  0  0  0
    3.6194   -0.3428    0.0000 C   0  0  0  0  0  0  0  0  0  0  0  0
    4.4163   -0.5563    0.0000 O   0  0  0  0  0  0  0  0  0  0  0  0
    3.0360   -0.9261    0.0000 O   0  0  0  0  0  0  0  0  0  0  0  0
    4.9997    0.0271    0.0000 C   0  0  0  0  0  0  0  0  0  0  0  0
    5.7965   -0.1864    0.0000 C   0  0  0  0  0  0  0  0  0  0  0  0
    4.7861    0.8240    0.0000 C   0  0  0  0  0  0  0  0  0  0  0  0
   -5.3840   -0.3305    0.0000 C   0  0  0  0  0  0  0  0  0  0  0  0
   -4.5590   -0.3305    0.0000 C   0  0  0  0  0  0  0  0  0  0  0  0
   -4.3041    0.4541    0.0000 N   0  0  0  0  0  0  0  0  0  0  0  0
   -4.9715    0.9390    0.0000 C   0  0  0  0  0  0  0  0  0  0  0  0
   -5.6390    0.4541    0.0000 O   0  0  0  0  0  0  0  0  0  0  0  0
   -4.9715    1.7640    0.0000 O   0  0  0  0  0  0  0  0  0  0  0  0
   -5.7965   -1.0450    0.0000 C   0  0  0  0  0  0  0  0  0  0  0  0
  1  2  4  0  0  0  0
  2  3  4  0  0  0  0
  3  4  4  0  0  0  0
  4  5  4  0  0  0  0
  5  1  4  0  0  0  0
  3  6  1  0  0  0  0
  6  7  4  0  0  0  0
  7  8  4  0  0  0  0
  8  9  4  0  0  0  0
  9 10  4  0  0  0  0
 10 11  4  0  0  0  0
 11  6  4  0  0  0  0
  9 35  1  0  0  0  0
 11 12  1  0  0  0  0
 12 13  1  0  0  0  0
 12 14  2  0  0  0  0
 15 12  2  0  0  0  0
 13 16  1  0  0  0  0
 16 17  1  0  0  0  0
 16 18  1  0  0  0  0
 16 19  1  0  0  0  0
  5 20  1  0  0  0  0
 20 21  4  0  0  0  0
 21 22  4  0  0  0  0
 22 23  4  0  0  0  0
 23 24  4  0  0  0  0
 24 25  4  0  0  0  0
 25 20  4  0  0  0  0
 23 26  1  0  0  0  0
 26 27  1  0  0  0  0
 27 28  1  0  0  0  0
 27 29  2  0  0  0  0
 28 30  1  0  0  0  0
 30 31  1  0  0  0  0
 30 32  1  0  0  0  0
 33 34  1  0  0  0  0
 34 35  1  0  0  0  0
 35 36  1  0  0  0  0
 36 37  1  0  0  0  0
 37 33  1  0  0  0  0
 36 38  2  0  0  0  0
 33 39  1  0  0  0  0
M  END
> <From>
www.bindingDB.org

> <BindingDB Reactant_set_id>
1155312

> <Ligand InChI>
InChI=1S/C27H32N4O6S2/c1-16(2)36-25(32)29-19-9-7-18(8-10-19)24-28-14-22(38-24)21-12-11-20(31-15-17(3)37-26(31)33)13-23(21)39(34,35)30-27(4,5)6/h7-14,16-17,30H,15H2,1-6H3,(H,29,32)

> <Ligand InChI Key>
MNFQAOUYLSZDOP-UHFFFAOYSA-N

> <BindingDB MonomerID>
546462

> <BindingDB Ligand Name>
US11291655, No J26

> <Target Name>
DNA repair protein RAD51 homolog 1

> <Target Source Organism According to Curator or DataSource>
Homo sapiens

> <Ki (nM)>


> <IC50 (nM)>


> <Kd (nM)>


> <EC50 (nM)>
<10000

> <kon (M-1-s-1)>


> <koff (s-1)>


> <pH>


> <Temp C>


> <Curation/DataSource>
US Patent

> <Article DOI>


> <BindingDB Entry DOI>
10.7270/Q2NG4TV0

> <PMID>


> <PubChem AID>
aid1806421

> <Patent Number>
US11291655

> <Authors>
Castro, AC; McComas, CC; Vacca, J

> <Date of publication>
4/5/2022

> <Date in BindingDB>
7/21/2022

> <Institution>
Cyteir Therapeutics, Inc.

> <Link to Ligand in BindingDB>
http://www.bindingdb.org/bind/chemsearch/marvin/MolStructure.jsp?monomerid=546462

> <Link to Ligand-Target Pair in BindingDB>
http://www.bindingdb.org/jsp/dbsearch/PrimarySearch_ki.jsp?energyterm=kJ/mole&tag=pol&polymerid=4676&target=DNA+repair+protein+RAD51+homolog+1&column=ki&startPg=0&Increment=50&submit=Search

> <Link to Ligand-Target Pair in BindingDB>
http://www.bindingdb.org/jsp/dbsearch/PrimarySearch_ki.jsp?energyterm=kJ/mole&tag=r21&monomerid=546462&enzyme=DNA+repair+protein+RAD51+homolog+1&column=ki&startPg=0&Increment=50&submit=Search

> <Ligand HET ID in PDB>


> <PDB ID(s) for Ligand-Target Complex>


> <PubChem CID of Ligand>
137411729

> <PubChem SID of Ligand>
469681158

> <ChEBI ID of Ligand>


> <ChEMBL ID of Ligand>


> <DrugBank ID of Ligand>


> <IUPHAR_GRAC ID of Ligand>


> <KEGG ID of Ligand>


> <ZINC ID of Ligand>


> <Number of Protein Chains in Target (bigger than 1 implies a multichain complex)>
1

> <BindingDB Target Chain Sequence>
MAMQMQLEANADTSVEEESFGPQPISRLEQCGINANDVKKLEEAGFHTVEAVAYAPKKELINIKGISEAKADKILAEAAKLVPMGFTTATEFHQRRSEIIQITTGSKELDKLLQGGIETGSITEMFGEFRTGKTQICHTLAVTCQLPIDRGGGEGKAMYIDTEGTFRPERLLAVAERYGLSGSDVLDNVAYARAFNTDHQTQLLYQASAMMVESRYALLIVDSATALYRTDYSGRGELSARQMHLARFLRMLLRLADEFGVAVVITNQVVAQVDGAAMFAADPKKPIGGNIIAHASTTRLYLRKGRGETRICKIYDSPCLPEAEAMFAINADGVGDAKD

> <PDB ID(s) of Target Chain>
1N0W,5JZC,5NP7,5NWL,8BQ2,8BR2,8BSC

> <UniProt (SwissProt) Recommended Name of Target Chain>
DNA repair protein RAD51 homolog 1

> <UniProt (SwissProt) Entry Name of Target Chain>
RAD51_HUMAN

> <UniProt (SwissProt) Primary ID of Target Chain>
Q06609

> <UniProt (SwissProt) Secondary ID(s) of Target Chain>
B0FXP0 B2R8T6 Q6FHX9 Q6ZNA8 Q9BV60

> <UniProt (SwissProt) Alternative ID(s) of Target Chain>


> <UniProt (TrEMBL) Submitted Name of Target Chain>


> <UniProt (TrEMBL) Entry Name of Target Chain>


> <UniProt (TrEMBL) Primary ID of Target Chain>


> <UniProt (TrEMBL) Secondary ID(s) of Target Chain>


> <UniProt (TrEMBL) Alternative ID(s) of Target Chain>


$$$$
00324001.cdx
  Mrv0541 07212217012D          

 45 49  0  0  0  0            999 V2000
    1.2009    2.0929    0.0000 N   0  0  0  0  0  0  0  0  0  0  0  0
    0.3759    2.0929    0.0000 C   0  0  0  0  0  0  0  0  0  0  0  0
    0.1209    1.3082    0.0000 C   0  0  0  0  0  0  0  0  0  0  0  0
    0.7884    0.8233    0.0000 S   0  0  0  0  0  0  0  0  0  0  0  0
    1.4558    1.3082    0.0000 C   0  0  0  0  0  0  0  0  0  0  0  0
   -0.6759    1.0947    0.0000 C   0  0  0  0  0  0  0  0  0  0  0  0
   -1.2593    1.6781    0.0000 C   0  0  0  0  0  0  0  0  0  0  0  0
   -2.0562    1.4645    0.0000 C   0  0  0  0  0  0  0  0  0  0  0  0
   -2.2697    0.6677    0.0000 C   0  0  0  0  0  0  0  0  0  0  0  0
   -1.6864    0.0843    0.0000 C   0  0  0  0  0  0  0  0  0  0  0  0
   -0.8895    0.2978    0.0000 C   0  0  0  0  0  0  0  0  0  0  0  0
   -0.3061   -0.2855    0.0000 S   0  0  0  0  0  0  0  0  0  0  0  0
   -0.5196   -1.0824    0.0000 N   0  0  0  0  0  0  0  0  0  0  0  0
    0.4908   -0.4991    0.0000 O   0  0  0  0  0  0  0  0  0  0  0  0
    0.2773    0.2978    0.0000 O   0  0  0  0  0  0  0  0  0  0  0  0
   -1.3165   -1.2960    0.0000 C   0  0  0  0  0  0  0  0  0  0  0  0
   -1.5300   -2.0929    0.0000 C   0  0  0  0  0  0  0  0  0  0  0  0
   -1.8999   -0.7126    0.0000 C   0  0  0  0  0  0  0  0  0  0  0  0
   -2.1134   -1.5095    0.0000 C   0  0  0  0  0  0  0  0  0  0  0  0
    2.2527    1.0947    0.0000 C   0  0  0  0  0  0  0  0  0  0  0  0
    2.4662    0.2978    0.0000 C   0  0  0  0  0  0  0  0  0  0  0  0
    3.2631    0.0843    0.0000 C   0  0  0  0  0  0  0  0  0  0  0  0
    3.8465    0.6677    0.0000 C   0  0  0  0  0  0  0  0  0  0  0  0
    3.6330    1.4645    0.0000 C   0  0  0  0  0  0  0  0  0  0  0  0
    2.8361    1.6781    0.0000 C   0  0  0  0  0  0  0  0  0  0  0  0
    4.6434    0.4541    0.0000 N   0  0  0  0  0  0  0  0  0  0  0  0
    4.8569   -0.3428    0.0000 C   0  0  0  0  0  0  0  0  0  0  0  0
    5.6538   -0.5563    0.0000 O   0  0  0  0  0  0  0  0  0  0  0  0
    4.2735   -0.9261    0.0000 O   0  0  0  0  0  0  0  0  0  0  0  0
    6.2372    0.0271    0.0000 C   0  0  0  0  0  0  0  0  0  0  0  0
    7.0340   -0.1864    0.0000 C   0  0  0  0  0  0  0  0  0  0  0  0
    6.0236    0.8240    0.0000 C   0  0  0  0  0  0  0  0  0  0  0  0
   -4.1465   -0.3305    0.0000 C   0  0  0  0  0  0  0  0  0  0  0  0
   -3.3215   -0.3305    0.0000 C   0  0  0  0  0  0  0  0  0  0  0  0
   -3.0666    0.4541    0.0000 N   0  0  0  0  0  0  0  0  0  0  0  0
   -3.7340    0.9390    0.0000 C   0  0  0  0  0  0  0  0  0  0  0  0
   -4.4015    0.4541    0.0000 O   0  0  0  0  0  0  0  0  0  0  0  0
   -3.7340    1.7640    0.0000 O   0  0  0  0  0  0  0  0  0  0  0  0
   -4.5590   -1.0450    0.0000 C   0  0  0  0  0  0  0  0  0  0  0  0
   -5.3840   -1.0450    0.0000 C   0  0  0  0  0  0  0  0  0  0  0  0
   -5.7965   -0.3305    0.0000 C   0  0  0  0  0  0  0  0  0  0  0  0
   -6.6215   -0.3305    0.0000 C   0  0  0  0  0  0  0  0  0  0  0  0
   -7.0340   -1.0450    0.0000 C   0  0  0  0  0  0  0  0  0  0  0  0
   -6.6215   -1.7594    0.0000 C   0  0  0  0  0  0  0  0  0  0  0  0
   -5.7965   -1.7594    0.0000 C   0  0  0  0  0  0  0  0  0  0  0  0
  1  2  4  0  0  0  0
  2  3  4  0  0  0  0
  3  4  4  0  0  0  0
  4  5  4  0  0  0  0
  5  1  4  0  0  0  0
  3  6  1  0  0  0  0
  6  7  4  0  0  0  0
  7  8  4  0  0  0  0
  8  9  4  0  0  0  0
  9 10  4  0  0  0  0
 10 11  4  0  0  0  0
 11  6  4  0  0  0  0
  9 35  1  0  0  0  0
 11 12  1  0  0  0  0
 12 13  1  0  0  0  0
 12 14  2  0  0  0  0
 15 12  2  0  0  0  0
 13 16  1  0  0  0  0
 16 17  1  0  0  0  0
 16 18  1  0  0  0  0
 16 19  1  0  0  0  0
  5 20  1  0  0  0  0
 20 21  4  0  0  0  0
 21 22  4  0  0  0  0
 22 23  4  0  0  0  0
 23 24  4  0  0  0  0
 24 25  4  0  0  0  0
 25 20  4  0  0  0  0
 23 26  1  0  0  0  0
 26 27  1  0  0  0  0
 27 28  1  0  0  0  0
 27 29  2  0  0  0  0
 28 30  1  0  0  0  0
 30 31  1  0  0  0  0
 30 32  1  0  0  0  0
 33 34  1  0  0  0  0
 34 35  1  0  0  0  0
 35 36  1  0  0  0  0
 36 37  1  0  0  0  0
 37 33  1  0  0  0  0
 36 38  2  0  0  0  0
 33 39  1  0  0  0  0
 39 40  1  0  0  0  0
 40 41  4  0  0  0  0
 41 42  4  0  0  0  0
 42 43  4  0  0  0  0
 43 44  4  0  0  0  0
 44 45  4  0  0  0  0
 45 40  4  0  0  0  0
M  END
> <From>
www.bindingDB.org

> <BindingDB Reactant_set_id>
1155313

> <Ligand InChI>
InChI=1S/C33H36N4O6S2/c1-21(2)42-31(38)35-24-13-11-23(12-14-24)30-34-19-28(44-30)27-16-15-25(18-29(27)45(40,41)36-33(3,4)5)37-20-26(43-32(37)39)17-22-9-7-6-8-10-22/h6-16,18-19,21,26,36H,17,20H2,1-5H3,(H,35,38)

> <Ligand InChI Key>
PQVNUAUQZSMQQR-UHFFFAOYSA-N

> <BindingDB MonomerID>
546463

> <BindingDB Ligand Name>
US11291655, No J27

> <Target Name>
DNA repair protein RAD51 homolog 1

> <Target Source Organism According to Curator or DataSource>
Homo sapiens

> <Ki (nM)>


> <IC50 (nM)>


> <Kd (nM)>


> <EC50 (nM)>
>10000

> <kon (M-1-s-1)>


> <koff (s-1)>


> <pH>


> <Temp C>


> <Curation/DataSource>
US Patent

> <Article DOI>


> <BindingDB Entry DOI>
10.7270/Q2NG4TV0

> <PMID>


> <PubChem AID>
aid1806421

> <Patent Number>
US11291655

> <Authors>
Castro, AC; McComas, CC; Vacca, J

> <Date of publication>
4/5/2022

> <Date in BindingDB>
7/21/2022

> <Institution>
Cyteir Therapeutics, Inc.

> <Link to Ligand in BindingDB>
http://www.bindingdb.org/bind/chemsearch/marvin/MolStructure.jsp?monomerid=546463

> <Link to Ligand-Target Pair in BindingDB>
http://www.bindingdb.org/jsp/dbsearch/PrimarySearch_ki.jsp?energyterm=kJ/mole&tag=pol&polymerid=4676&target=DNA+repair+protein+RAD51+homolog+1&column=ki&startPg=0&Increment=50&submit=Search

> <Link to Ligand-Target Pair in BindingDB>
http://www.bindingdb.org/jsp/dbsearch/PrimarySearch_ki.jsp?energyterm=kJ/mole&tag=r21&monomerid=546463&enzyme=DNA+repair+protein+RAD51+homolog+1&column=ki&startPg=0&Increment=50&submit=Search

> <Ligand HET ID in PDB>


> <PDB ID(s) for Ligand-Target Complex>


> <PubChem CID of Ligand>
137411726

> <PubChem SID of Ligand>
469681159

> <ChEBI ID of Ligand>


> <ChEMBL ID of Ligand>


> <DrugBank ID of Ligand>


> <IUPHAR_GRAC ID of Ligand>


> <KEGG ID of Ligand>


> <ZINC ID of Ligand>


> <Number of Protein Chains in Target (bigger than 1 implies a multichain complex)>
1

> <BindingDB Target Chain Sequence>
MAMQMQLEANADTSVEEESFGPQPISRLEQCGINANDVKKLEEAGFHTVEAVAYAPKKELINIKGISEAKADKILAEAAKLVPMGFTTATEFHQRRSEIIQITTGSKELDKLLQGGIETGSITEMFGEFRTGKTQICHTLAVTCQLPIDRGGGEGKAMYIDTEGTFRPERLLAVAERYGLSGSDVLDNVAYARAFNTDHQTQLLYQASAMMVESRYALLIVDSATALYRTDYSGRGELSARQMHLARFLRMLLRLADEFGVAVVITNQVVAQVDGAAMFAADPKKPIGGNIIAHASTTRLYLRKGRGETRICKIYDSPCLPEAEAMFAINADGVGDAKD

> <PDB ID(s) of Target Chain>
1N0W,5JZC,5NP7,5NWL,8BQ2,8BR2,8BSC

> <UniProt (SwissProt) Recommended Name of Target Chain>
DNA repair protein RAD51 homolog 1

> <UniProt (SwissProt) Entry Name of Target Chain>
RAD51_HUMAN

> <UniProt (SwissProt) Primary ID of Target Chain>
Q06609

> <UniProt (SwissProt) Secondary ID(s) of Target Chain>
B0FXP0 B2R8T6 Q6FHX9 Q6ZNA8 Q9BV60

> <UniProt (SwissProt) Alternative ID(s) of Target Chain>


> <UniProt (TrEMBL) Submitted Name of Target Chain>


> <UniProt (TrEMBL) Entry Name of Target Chain>


> <UniProt (TrEMBL) Primary ID of Target Chain>


> <UniProt (TrEMBL) Secondary ID(s) of Target Chain>


> <UniProt (TrEMBL) Alternative ID(s) of Target Chain>


$$$$
00325001.cdx
  Mrv0541 07212217012D          

 45 49  0  0  0  0            999 V2000
    1.2649    2.0929    0.0000 N   0  0  0  0  0  0  0  0  0  0  0  0
    0.4399    2.0929    0.0000 C   0  0  0  0  0  0  0  0  0  0  0  0
    0.1849    1.3082    0.0000 C   0  0  0  0  0  0  0  0  0  0  0  0
    0.8524    0.8233    0.0000 S   0  0  0  0  0  0  0  0  0  0  0  0
    1.5198    1.3082    0.0000 C   0  0  0  0  0  0  0  0  0  0  0  0
   -0.6120    1.0947    0.0000 C   0  0  0  0  0  0  0  0  0  0  0  0
   -1.1953    1.6781    0.0000 C   0  0  0  0  0  0  0  0  0  0  0  0
   -1.9922    1.4645    0.0000 C   0  0  0  0  0  0  0  0  0  0  0  0
   -2.2057    0.6677    0.0000 C   0  0  0  0  0  0  0  0  0  0  0  0
   -1.6224    0.0843    0.0000 C   0  0  0  0  0  0  0  0  0  0  0  0
   -0.8255    0.2978    0.0000 C   0  0  0  0  0  0  0  0  0  0  0  0
   -0.2421   -0.2855    0.0000 S   0  0  0  0  0  0  0  0  0  0  0  0
   -0.4557   -1.0824    0.0000 N   0  0  0  0  0  0  0  0  0  0  0  0
    0.5548   -0.4991    0.0000 O   0  0  0  0  0  0  0  0  0  0  0  0
    0.3412    0.2978    0.0000 O   0  0  0  0  0  0  0  0  0  0  0  0
   -1.2525   -1.2960    0.0000 C   0  0  0  0  0  0  0  0  0  0  0  0
   -1.4661   -2.0929    0.0000 C   0  0  0  0  0  0  0  0  0  0  0  0
   -1.8359   -0.7126    0.0000 C   0  0  0  0  0  0  0  0  0  0  0  0
   -2.0494   -1.5095    0.0000 C   0  0  0  0  0  0  0  0  0  0  0  0
    2.3167    1.0947    0.0000 C   0  0  0  0  0  0  0  0  0  0  0  0
    2.5302    0.2978    0.0000 C   0  0  0  0  0  0  0  0  0  0  0  0
    3.3271    0.0843    0.0000 C   0  0  0  0  0  0  0  0  0  0  0  0
    3.9105    0.6677    0.0000 C   0  0  0  0  0  0  0  0  0  0  0  0
    3.6969    1.4645    0.0000 C   0  0  0  0  0  0  0  0  0  0  0  0
    2.9000    1.6781    0.0000 C   0  0  0  0  0  0  0  0  0  0  0  0
    4.7074    0.4541    0.0000 N   0  0  0  0  0  0  0  0  0  0  0  0
    4.9209   -0.3428    0.0000 C   0  0  0  0  0  0  0  0  0  0  0  0
    5.7178   -0.5563    0.0000 O   0  0  0  0  0  0  0  0  0  0  0  0
    4.3375   -0.9261    0.0000 O   0  0  0  0  0  0  0  0  0  0  0  0
    6.3011    0.0271    0.0000 C   0  0  0  0  0  0  0  0  0  0  0  0
    7.0980   -0.1864    0.0000 C   0  0  0  0  0  0  0  0  0  0  0  0
    6.0876    0.8240    0.0000 C   0  0  0  0  0  0  0  0  0  0  0  0
   -4.0826   -0.3305    0.0000 C   0  0  0  0  0  0  0  0  0  0  0  0
   -3.2576   -0.3305    0.0000 C   0  0  0  0  0  0  0  0  0  0  0  0
   -3.0026    0.4541    0.0000 N   0  0  0  0  0  0  0  0  0  0  0  0
   -3.6701    0.9390    0.0000 C   0  0  0  0  0  0  0  0  0  0  0  0
   -4.3375    0.4541    0.0000 C   0  0  0  0  0  0  0  0  0  0  0  0
   -3.6701    1.7640    0.0000 O   0  0  0  0  0  0  0  0  0  0  0  0
   -5.1344    0.6677    0.0000 C   0  0  0  0  0  0  0  0  0  0  0  0
   -5.7178    0.0843    0.0000 C   0  0  0  0  0  0  0  0  0  0  0  0
   -6.5147    0.2978    0.0000 C   0  0  0  0  0  0  0  0  0  0  0  0
   -7.0980   -0.2855    0.0000 C   0  0  0  0  0  0  0  0  0  0  0  0
   -6.8845   -1.0824    0.0000 C   0  0  0  0  0  0  0  0  0  0  0  0
   -6.0876   -1.2960    0.0000 C   0  0  0  0  0  0  0  0  0  0  0  0
   -5.5042   -0.7126    0.0000 C   0  0  0  0  0  0  0  0  0  0  0  0
  1  2  4  0  0  0  0
  2  3  4  0  0  0  0
  3  4  4  0  0  0  0
  4  5  4  0  0  0  0
  5  1  4  0  0  0  0
  3  6  1  0  0  0  0
  6  7  4  0  0  0  0
  7  8  4  0  0  0  0
  8  9  4  0  0  0  0
  9 10  4  0  0  0  0
 10 11  4  0  0  0  0
 11  6  4  0  0  0  0
  9 35  1  0  0  0  0
 11 12  1  0  0  0  0
 12 13  1  0  0  0  0
 12 14  2  0  0  0  0
 15 12  2  0  0  0  0
 13 16  1  0  0  0  0
 16 17  1  0  0  0  0
 16 18  1  0  0  0  0
 16 19  1  0  0  0  0
  5 20  1  0  0  0  0
 20 21  4  0  0  0  0
 21 22  4  0  0  0  0
 22 23  4  0  0  0  0
 23 24  4  0  0  0  0
 24 25  4  0  0  0  0
 25 20  4  0  0  0  0
 23 26  1  0  0  0  0
 26 27  1  0  0  0  0
 27 28  1  0  0  0  0
 27 29  2  0  0  0  0
 28 30  1  0  0  0  0
 30 31  1  0  0  0  0
 30 32  1  0  0  0  0
 33 34  1  0  0  0  0
 34 35  1  0  0  0  0
 35 36  1  0  0  0  0
 36 37  1  0  0  0  0
 37 33  1  0  0  0  0
 36 38  2  0  0  0  0
 37 39  1  0  0  0  0
 39 40  1  0  0  0  0
 40 41  4  0  0  0  0
 41 42  4  0  0  0  0
 42 43  4  0  0  0  0
 43 44  4  0  0  0  0
 44 45  4  0  0  0  0
 45 40  4  0  0  0  0
M  END
> <From>
www.bindingDB.org

> <BindingDB Reactant_set_id>
1155314

> <Ligand InChI>
InChI=1S/C34H38N4O5S2/c1-22(2)43-33(40)36-26-13-11-24(12-14-26)31-35-21-29(44-31)28-16-15-27(20-30(28)45(41,42)37-34(3,4)5)38-18-17-25(32(38)39)19-23-9-7-6-8-10-23/h6-16,20-22,25,37H,17-19H2,1-5H3,(H,36,40)

> <Ligand InChI Key>
IPXJOVWLMBFFJY-UHFFFAOYSA-N

> <BindingDB MonomerID>
546464

> <BindingDB Ligand Name>
US11291655, No J28

> <Target Name>
DNA repair protein RAD51 homolog 1

> <Target Source Organism According to Curator or DataSource>
Homo sapiens

> <Ki (nM)>


> <IC50 (nM)>


> <Kd (nM)>


> <EC50 (nM)>
>10000

> <kon (M-1-s-1)>


> <koff (s-1)>


> <pH>


> <Temp C>


> <Curation/DataSource>
US Patent

> <Article DOI>


> <BindingDB Entry DOI>
10.7270/Q2NG4TV0

> <PMID>


> <PubChem AID>
aid1806421

> <Patent Number>
US11291655

> <Authors>
Castro, AC; McComas, CC; Vacca, J

> <Date of publication>
4/5/2022

> <Date in BindingDB>
7/21/2022

> <Institution>
Cyteir Therapeutics, Inc.

> <Link to Ligand in BindingDB>
http://www.bindingdb.org/bind/chemsearch/marvin/MolStructure.jsp?monomerid=546464

> <Link to Ligand-Target Pair in BindingDB>
http://www.bindingdb.org/jsp/dbsearch/PrimarySearch_ki.jsp?energyterm=kJ/mole&tag=pol&polymerid=4676&target=DNA+repair+protein+RAD51+homolog+1&column=ki&startPg=0&Increment=50&submit=Search

> <Link to Ligand-Target Pair in BindingDB>
http://www.bindingdb.org/jsp/dbsearch/PrimarySearch_ki.jsp?energyterm=kJ/mole&tag=r21&monomerid=546464&enzyme=DNA+repair+protein+RAD51+homolog+1&column=ki&startPg=0&Increment=50&submit=Search

> <Ligand HET ID in PDB>


> <PDB ID(s) for Ligand-Target Complex>


> <PubChem CID of Ligand>
137411858

> <PubChem SID of Ligand>
469681160

> <ChEBI ID of Ligand>


> <ChEMBL ID of Ligand>


> <DrugBank ID of Ligand>


> <IUPHAR_GRAC ID of Ligand>


> <KEGG ID of Ligand>


> <ZINC ID of Ligand>


> <Number of Protein Chains in Target (bigger than 1 implies a multichain complex)>
1

> <BindingDB Target Chain Sequence>
MAMQMQLEANADTSVEEESFGPQPISRLEQCGINANDVKKLEEAGFHTVEAVAYAPKKELINIKGISEAKADKILAEAAKLVPMGFTTATEFHQRRSEIIQITTGSKELDKLLQGGIETGSITEMFGEFRTGKTQICHTLAVTCQLPIDRGGGEGKAMYIDTEGTFRPERLLAVAERYGLSGSDVLDNVAYARAFNTDHQTQLLYQASAMMVESRYALLIVDSATALYRTDYSGRGELSARQMHLARFLRMLLRLADEFGVAVVITNQVVAQVDGAAMFAADPKKPIGGNIIAHASTTRLYLRKGRGETRICKIYDSPCLPEAEAMFAINADGVGDAKD

> <PDB ID(s) of Target Chain>
1N0W,5JZC,5NP7,5NWL,8BQ2,8BR2,8BSC

> <UniProt (SwissProt) Recommended Name of Target Chain>
DNA repair protein RAD51 homolog 1

> <UniProt (SwissProt) Entry Name of Target Chain>
RAD51_HUMAN

> <UniProt (SwissProt) Primary ID of Target Chain>
Q06609

> <UniProt (SwissProt) Secondary ID(s) of Target Chain>
B0FXP0 B2R8T6 Q6FHX9 Q6ZNA8 Q9BV60

> <UniProt (SwissProt) Alternative ID(s) of Target Chain>


> <UniProt (TrEMBL) Submitted Name of Target Chain>


> <UniProt (TrEMBL) Entry Name of Target Chain>


> <UniProt (TrEMBL) Primary ID of Target Chain>


> <UniProt (TrEMBL) Secondary ID(s) of Target Chain>


> <UniProt (TrEMBL) Alternative ID(s) of Target Chain>


$$$$
00326001.cdx
  Mrv0541 07212217012D          

 44 48  0  0  0  0            999 V2000
    0.5821    2.2834    0.0000 N   0  0  0  0  0  0  0  0  0  0  0  0
   -0.2429    2.2834    0.0000 C   0  0  0  0  0  0  0  0  0  0  0  0
   -0.4978    1.4988    0.0000 C   0  0  0  0  0  0  0  0  0  0  0  0
    0.1696    1.0138    0.0000 S   0  0  0  0  0  0  0  0  0  0  0  0
    0.8371    1.4988    0.0000 C   0  0  0  0  0  0  0  0  0  0  0  0
   -1.2947    1.2852    0.0000 C   0  0  0  0  0  0  0  0  0  0  0  0
   -1.8781    1.8686    0.0000 C   0  0  0  0  0  0  0  0  0  0  0  0
   -2.6749    1.6551    0.0000 C   0  0  0  0  0  0  0  0  0  0  0  0
   -2.8885    0.8582    0.0000 C   0  0  0  0  0  0  0  0  0  0  0  0
   -2.3051    0.2748    0.0000 C   0  0  0  0  0  0  0  0  0  0  0  0
   -1.5082    0.4883    0.0000 C   0  0  0  0  0  0  0  0  0  0  0  0
   -0.9249   -0.0950    0.0000 S   0  0  0  0  0  0  0  0  0  0  0  0
   -1.1384   -0.8919    0.0000 N   0  0  0  0  0  0  0  0  0  0  0  0
   -0.1280   -0.3085    0.0000 O   0  0  0  0  0  0  0  0  0  0  0  0
   -0.3415    0.4883    0.0000 O   0  0  0  0  0  0  0  0  0  0  0  0
   -1.9353   -1.1054    0.0000 C   0  0  0  0  0  0  0  0  0  0  0  0
   -2.1488   -1.9023    0.0000 C   0  0  0  0  0  0  0  0  0  0  0  0
   -2.5186   -0.5221    0.0000 C   0  0  0  0  0  0  0  0  0  0  0  0
   -2.7322   -1.3190    0.0000 C   0  0  0  0  0  0  0  0  0  0  0  0
    1.6340    1.2852    0.0000 C   0  0  0  0  0  0  0  0  0  0  0  0
    1.8475    0.4883    0.0000 C   0  0  0  0  0  0  0  0  0  0  0  0
    2.6444    0.2748    0.0000 C   0  0  0  0  0  0  0  0  0  0  0  0
    3.2277    0.8582    0.0000 C   0  0  0  0  0  0  0  0  0  0  0  0
    3.0142    1.6551    0.0000 C   0  0  0  0  0  0  0  0  0  0  0  0
    2.2173    1.8686    0.0000 C   0  0  0  0  0  0  0  0  0  0  0  0
    4.0246    0.6447    0.0000 N   0  0  0  0  0  0  0  0  0  0  0  0
    4.2382   -0.1522    0.0000 C   0  0  0  0  0  0  0  0  0  0  0  0
    5.0350   -0.3658    0.0000 O   0  0  0  0  0  0  0  0  0  0  0  0
    3.6548   -0.7356    0.0000 O   0  0  0  0  0  0  0  0  0  0  0  0
    5.6184    0.2176    0.0000 C   0  0  0  0  0  0  0  0  0  0  0  0
    6.4153    0.0041    0.0000 C   0  0  0  0  0  0  0  0  0  0  0  0
    5.4049    1.0145    0.0000 C   0  0  0  0  0  0  0  0  0  0  0  0
   -4.7653   -0.1400    0.0000 C   0  0  0  0  0  0  0  0  0  0  0  0
   -3.9403   -0.1400    0.0000 C   0  0  0  0  0  0  0  0  0  0  0  0
   -3.6854    0.6447    0.0000 N   0  0  0  0  0  0  0  0  0  0  0  0
   -4.3528    1.1296    0.0000 C   0  0  0  0  0  0  0  0  0  0  0  0
   -5.0202    0.6447    0.0000 O   0  0  0  0  0  0  0  0  0  0  0  0
   -4.3528    1.9546    0.0000 O   0  0  0  0  0  0  0  0  0  0  0  0
   -5.1778   -0.8544    0.0000 C   0  0  0  0  0  0  0  0  0  0  0  0
   -6.0028   -0.8544    0.0000 C   0  0  0  0  0  0  0  0  0  0  0  0
   -6.4153   -1.5689    0.0000 C   0  0  0  0  0  0  0  0  0  0  0  0
   -6.0028   -2.2834    0.0000 C   0  0  0  0  0  0  0  0  0  0  0  0
   -5.1778   -2.2834    0.0000 C   0  0  0  0  0  0  0  0  0  0  0  0
   -4.7653   -1.5689    0.0000 C   0  0  0  0  0  0  0  0  0  0  0  0
  1  2  4  0  0  0  0
  2  3  4  0  0  0  0
  3  4  4  0  0  0  0
  4  5  4  0  0  0  0
  5  1  4  0  0  0  0
  3  6  1  0  0  0  0
  6  7  4  0  0  0  0
  7  8  4  0  0  0  0
  8  9  4  0  0  0  0
  9 10  4  0  0  0  0
 10 11  4  0  0  0  0
 11  6  4  0  0  0  0
  9 35  1  0  0  0  0
 11 12  1  0  0  0  0
 12 13  1  0  0  0  0
 12 14  2  0  0  0  0
 15 12  2  0  0  0  0
 13 16  1  0  0  0  0
 16 17  1  0  0  0  0
 16 18  1  0  0  0  0
 16 19  1  0  0  0  0
  5 20  1  0  0  0  0
 20 21  4  0  0  0  0
 21 22  4  0  0  0  0
 22 23  4  0  0  0  0
 23 24  4  0  0  0  0
 24 25  4  0  0  0  0
 25 20  4  0  0  0  0
 23 26  1  0  0  0  0
 26 27  1  0  0  0  0
 27 28  1  0  0  0  0
 27 29  2  0  0  0  0
 28 30  1  0  0  0  0
 30 31  1  0  0  0  0
 30 32  1  0  0  0  0
 33 34  1  0  0  0  0
 34 35  1  0  0  0  0
 35 36  1  0  0  0  0
 36 37  1  0  0  0  0
 37 33  1  0  0  0  0
 36 38  2  0  0  0  0
 33 39  1  0  0  0  0
 39 40  4  0  0  0  0
 40 41  4  0  0  0  0
 41 42  4  0  0  0  0
 42 43  4  0  0  0  0
 43 44  4  0  0  0  0
 44 39  4  0  0  0  0
M  END
> <From>
www.bindingDB.org

> <BindingDB Reactant_set_id>
1155315

> <Ligand InChI>
InChI=1S/C32H34N4O6S2/c1-20(2)41-30(37)34-23-13-11-22(12-14-23)29-33-18-27(43-29)25-16-15-24(17-28(25)44(39,40)35-32(3,4)5)36-19-26(42-31(36)38)21-9-7-6-8-10-21/h6-18,20,26,35H,19H2,1-5H3,(H,34,37)

> <Ligand InChI Key>
DNEWTMGEYRBODP-UHFFFAOYSA-N

> <BindingDB MonomerID>
546465

> <BindingDB Ligand Name>
US11291655, No J29

> <Target Name>
DNA repair protein RAD51 homolog 1

> <Target Source Organism According to Curator or DataSource>
Homo sapiens

> <Ki (nM)>


> <IC50 (nM)>


> <Kd (nM)>


> <EC50 (nM)>
>10000

> <kon (M-1-s-1)>


> <koff (s-1)>


> <pH>


> <Temp C>


> <Curation/DataSource>
US Patent

> <Article DOI>


> <BindingDB Entry DOI>
10.7270/Q2NG4TV0

> <PMID>


> <PubChem AID>
aid1806421

> <Patent Number>
US11291655

> <Authors>
Castro, AC; McComas, CC; Vacca, J

> <Date of publication>
4/5/2022

> <Date in BindingDB>
7/21/2022

> <Institution>
Cyteir Therapeutics, Inc.

> <Link to Ligand in BindingDB>
http://www.bindingdb.org/bind/chemsearch/marvin/MolStructure.jsp?monomerid=546465

> <Link to Ligand-Target Pair in BindingDB>
http://www.bindingdb.org/jsp/dbsearch/PrimarySearch_ki.jsp?energyterm=kJ/mole&tag=pol&polymerid=4676&target=DNA+repair+protein+RAD51+homolog+1&column=ki&startPg=0&Increment=50&submit=Search

> <Link to Ligand-Target Pair in BindingDB>
http://www.bindingdb.org/jsp/dbsearch/PrimarySearch_ki.jsp?energyterm=kJ/mole&tag=r21&monomerid=546465&enzyme=DNA+repair+protein+RAD51+homolog+1&column=ki&startPg=0&Increment=50&submit=Search

> <Ligand HET ID in PDB>


> <PDB ID(s) for Ligand-Target Complex>


> <PubChem CID of Ligand>
137408608

> <PubChem SID of Ligand>
469681161

> <ChEBI ID of Ligand>


> <ChEMBL ID of Ligand>


> <DrugBank ID of Ligand>


> <IUPHAR_GRAC ID of Ligand>


> <KEGG ID of Ligand>


> <ZINC ID of Ligand>


> <Number of Protein Chains in Target (bigger than 1 implies a multichain complex)>
1

> <BindingDB Target Chain Sequence>
MAMQMQLEANADTSVEEESFGPQPISRLEQCGINANDVKKLEEAGFHTVEAVAYAPKKELINIKGISEAKADKILAEAAKLVPMGFTTATEFHQRRSEIIQITTGSKELDKLLQGGIETGSITEMFGEFRTGKTQICHTLAVTCQLPIDRGGGEGKAMYIDTEGTFRPERLLAVAERYGLSGSDVLDNVAYARAFNTDHQTQLLYQASAMMVESRYALLIVDSATALYRTDYSGRGELSARQMHLARFLRMLLRLADEFGVAVVITNQVVAQVDGAAMFAADPKKPIGGNIIAHASTTRLYLRKGRGETRICKIYDSPCLPEAEAMFAINADGVGDAKD

> <PDB ID(s) of Target Chain>
1N0W,5JZC,5NP7,5NWL,8BQ2,8BR2,8BSC

> <UniProt (SwissProt) Recommended Name of Target Chain>
DNA repair protein RAD51 homolog 1

> <UniProt (SwissProt) Entry Name of Target Chain>
RAD51_HUMAN

> <UniProt (SwissProt) Primary ID of Target Chain>
Q06609

> <UniProt (SwissProt) Secondary ID(s) of Target Chain>
B0FXP0 B2R8T6 Q6FHX9 Q6ZNA8 Q9BV60

> <UniProt (SwissProt) Alternative ID(s) of Target Chain>


> <UniProt (TrEMBL) Submitted Name of Target Chain>


> <UniProt (TrEMBL) Entry Name of Target Chain>


> <UniProt (TrEMBL) Primary ID of Target Chain>


> <UniProt (TrEMBL) Secondary ID(s) of Target Chain>


> <UniProt (TrEMBL) Alternative ID(s) of Target Chain>


$$$$
00327001.cdx
  Mrv0541 07212217012D          

 39 41  0  0  0  0            999 V2000
   -0.0927    1.8236    0.0000 N   0  0  0  0  0  0  0  0  0  0  0  0
   -0.9177    1.8236    0.0000 C   0  0  0  0  0  0  0  0  0  0  0  0
   -1.1726    1.0390    0.0000 C   0  0  0  0  0  0  0  0  0  0  0  0
   -0.5052    0.5541    0.0000 S   0  0  0  0  0  0  0  0  0  0  0  0
    0.1622    1.0390    0.0000 C   0  0  0  0  0  0  0  0  0  0  0  0
   -1.9695    0.8255    0.0000 C   0  0  0  0  0  0  0  0  0  0  0  0
   -2.5529    1.4089    0.0000 C   0  0  0  0  0  0  0  0  0  0  0  0
   -3.3498    1.1953    0.0000 C   0  0  0  0  0  0  0  0  0  0  0  0
   -3.5633    0.3984    0.0000 C   0  0  0  0  0  0  0  0  0  0  0  0
   -2.9799   -0.1849    0.0000 C   0  0  0  0  0  0  0  0  0  0  0  0
   -2.1831    0.0286    0.0000 C   0  0  0  0  0  0  0  0  0  0  0  0
   -1.5997   -0.5548    0.0000 S   0  0  0  0  0  0  0  0  0  0  0  0
   -1.8132   -1.3516    0.0000 N   0  0  0  0  0  0  0  0  0  0  0  0
   -0.8028   -0.7683    0.0000 O   0  0  0  0  0  0  0  0  0  0  0  0
   -1.0163    0.0286    0.0000 O   0  0  0  0  0  0  0  0  0  0  0  0
   -2.6101   -1.5652    0.0000 C   0  0  0  0  0  0  0  0  0  0  0  0
   -2.8236   -2.3621    0.0000 C   0  0  0  0  0  0  0  0  0  0  0  0
   -3.1935   -0.9818    0.0000 C   0  0  0  0  0  0  0  0  0  0  0  0
   -3.4070   -1.7787    0.0000 C   0  0  0  0  0  0  0  0  0  0  0  0
    0.9591    0.8255    0.0000 C   0  0  0  0  0  0  0  0  0  0  0  0
    1.1726    0.0286    0.0000 C   0  0  0  0  0  0  0  0  0  0  0  0
    1.9695   -0.1849    0.0000 C   0  0  0  0  0  0  0  0  0  0  0  0
    2.5529    0.3984    0.0000 C   0  0  0  0  0  0  0  0  0  0  0  0
    2.3394    1.1953    0.0000 C   0  0  0  0  0  0  0  0  0  0  0  0
    1.5425    1.4089    0.0000 C   0  0  0  0  0  0  0  0  0  0  0  0
    3.3498    0.1849    0.0000 N   0  0  0  0  0  0  0  0  0  0  0  0
    3.5633   -0.6120    0.0000 C   0  0  0  0  0  0  0  0  0  0  0  0
    4.3602   -0.8255    0.0000 O   0  0  0  0  0  0  0  0  0  0  0  0
    2.9799   -1.1953    0.0000 O   0  0  0  0  0  0  0  0  0  0  0  0
    4.9436   -0.2421    0.0000 C   0  0  0  0  0  0  0  0  0  0  0  0
    5.7405   -0.4557    0.0000 C   0  0  0  0  0  0  0  0  0  0  0  0
    4.7300    0.5548    0.0000 C   0  0  0  0  0  0  0  0  0  0  0  0
   -4.3602    0.1849    0.0000 N   0  0  0  0  0  0  0  0  0  0  0  0
   -4.9436    0.7683    0.0000 C   0  0  0  0  0  0  0  0  0  0  0  0
   -5.7405    0.5548    0.0000 C   0  0  0  0  0  0  0  0  0  0  0  0
   -4.7300    1.5652    0.0000 C   0  0  0  0  0  0  0  0  0  0  0  0
   -5.3134    2.1485    0.0000 F   0  0  0  0  0  0  0  0  0  0  0  0
   -3.9331    1.7787    0.0000 F   0  0  0  0  0  0  0  0  0  0  0  0
   -4.5165    2.3621    0.0000 F   0  0  0  0  0  0  0  0  0  0  0  0
  1  2  4  0  0  0  0
  2  3  4  0  0  0  0
  3  4  4  0  0  0  0
  4  5  4  0  0  0  0
  5  1  4  0  0  0  0
  3  6  1  0  0  0  0
  6  7  4  0  0  0  0
  7  8  4  0  0  0  0
  8  9  4  0  0  0  0
  9 10  4  0  0  0  0
 10 11  4  0  0  0  0
 11  6  4  0  0  0  0
  9 33  1  0  0  0  0
 11 12  1  0  0  0  0
 12 13  1  0  0  0  0
 12 14  2  0  0  0  0
 15 12  2  0  0  0  0
 13 16  1  0  0  0  0
 16 17  1  0  0  0  0
 16 18  1  0  0  0  0
 16 19  1  0  0  0  0
  5 20  1  0  0  0  0
 20 21  4  0  0  0  0
 21 22  4  0  0  0  0
 22 23  4  0  0  0  0
 23 24  4  0  0  0  0
 24 25  4  0  0  0  0
 25 20  4  0  0  0  0
 23 26  1  0  0  0  0
 26 27  1  0  0  0  0
 27 28  1  0  0  0  0
 27 29  2  0  0  0  0
 28 30  1  0  0  0  0
 30 31  1  0  0  0  0
 30 32  1  0  0  0  0
 33 34  1  0  0  0  0
 34 35  1  0  0  0  0
 34 36  1  0  0  0  0
 36 37  1  0  0  0  0
 36 38  1  0  0  0  0
 36 39  1  0  0  0  0
M  END
> <From>
www.bindingDB.org

> <BindingDB Reactant_set_id>
1155316

> <Ligand InChI>
InChI=1S/C26H31F3N4O4S2/c1-15(2)37-24(34)32-18-9-7-17(8-10-18)23-30-14-21(38-23)20-12-11-19(31-16(3)26(27,28)29)13-22(20)39(35,36)33-25(4,5)6/h7-16,31,33H,1-6H3,(H,32,34)

> <Ligand InChI Key>
VOUHZDCYWVFLQZ-UHFFFAOYSA-N

> <BindingDB MonomerID>
546466

> <BindingDB Ligand Name>
US11291655, No J3

> <Target Name>
DNA repair protein RAD51 homolog 1

> <Target Source Organism According to Curator or DataSource>
Homo sapiens

> <Ki (nM)>


> <IC50 (nM)>


> <Kd (nM)>


> <EC50 (nM)>
<5000

> <kon (M-1-s-1)>


> <koff (s-1)>


> <pH>


> <Temp C>


> <Curation/DataSource>
US Patent

> <Article DOI>


> <BindingDB Entry DOI>
10.7270/Q2NG4TV0

> <PMID>


> <PubChem AID>
aid1806421

> <Patent Number>
US11291655

> <Authors>
Castro, AC; McComas, CC; Vacca, J

> <Date of publication>
4/5/2022

> <Date in BindingDB>
7/21/2022

> <Institution>
Cyteir Therapeutics, Inc.

> <Link to Ligand in BindingDB>
http://www.bindingdb.org/bind/chemsearch/marvin/MolStructure.jsp?monomerid=546466

> <Link to Ligand-Target Pair in BindingDB>
http://www.bindingdb.org/jsp/dbsearch/PrimarySearch_ki.jsp?energyterm=kJ/mole&tag=pol&polymerid=4676&target=DNA+repair+protein+RAD51+homolog+1&column=ki&startPg=0&Increment=50&submit=Search

> <Link to Ligand-Target Pair in BindingDB>
http://www.bindingdb.org/jsp/dbsearch/PrimarySearch_ki.jsp?energyterm=kJ/mole&tag=r21&monomerid=546466&enzyme=DNA+repair+protein+RAD51+homolog+1&column=ki&startPg=0&Increment=50&submit=Search

> <Ligand HET ID in PDB>


> <PDB ID(s) for Ligand-Target Complex>


> <PubChem CID of Ligand>
137408662

> <PubChem SID of Ligand>
469681162

> <ChEBI ID of Ligand>


> <ChEMBL ID of Ligand>


> <DrugBank ID of Ligand>


> <IUPHAR_GRAC ID of Ligand>


> <KEGG ID of Ligand>


> <ZINC ID of Ligand>


> <Number of Protein Chains in Target (bigger than 1 implies a multichain complex)>
1

> <BindingDB Target Chain Sequence>
MAMQMQLEANADTSVEEESFGPQPISRLEQCGINANDVKKLEEAGFHTVEAVAYAPKKELINIKGISEAKADKILAEAAKLVPMGFTTATEFHQRRSEIIQITTGSKELDKLLQGGIETGSITEMFGEFRTGKTQICHTLAVTCQLPIDRGGGEGKAMYIDTEGTFRPERLLAVAERYGLSGSDVLDNVAYARAFNTDHQTQLLYQASAMMVESRYALLIVDSATALYRTDYSGRGELSARQMHLARFLRMLLRLADEFGVAVVITNQVVAQVDGAAMFAADPKKPIGGNIIAHASTTRLYLRKGRGETRICKIYDSPCLPEAEAMFAINADGVGDAKD

> <PDB ID(s) of Target Chain>
1N0W,5JZC,5NP7,5NWL,8BQ2,8BR2,8BSC

> <UniProt (SwissProt) Recommended Name of Target Chain>
DNA repair protein RAD51 homolog 1

> <UniProt (SwissProt) Entry Name of Target Chain>
RAD51_HUMAN

> <UniProt (SwissProt) Primary ID of Target Chain>
Q06609

> <UniProt (SwissProt) Secondary ID(s) of Target Chain>
B0FXP0 B2R8T6 Q6FHX9 Q6ZNA8 Q9BV60

> <UniProt (SwissProt) Alternative ID(s) of Target Chain>


> <UniProt (TrEMBL) Submitted Name of Target Chain>


> <UniProt (TrEMBL) Entry Name of Target Chain>


> <UniProt (TrEMBL) Primary ID of Target Chain>


> <UniProt (TrEMBL) Secondary ID(s) of Target Chain>


> <UniProt (TrEMBL) Alternative ID(s) of Target Chain>


$$$$
00328001.cdx
  Mrv0541 07212217012D          

 38 41  0  0  0  0            999 V2000
   -0.1154    2.0929    0.0000 N   0  0  0  0  0  0  0  0  0  0  0  0
   -0.9404    2.0929    0.0000 C   0  0  0  0  0  0  0  0  0  0  0  0
   -1.1953    1.3082    0.0000 C   0  0  0  0  0  0  0  0  0  0  0  0
   -0.5279    0.8233    0.0000 S   0  0  0  0  0  0  0  0  0  0  0  0
    0.1395    1.3082    0.0000 C   0  0  0  0  0  0  0  0  0  0  0  0
   -1.9922    1.0947    0.0000 C   0  0  0  0  0  0  0  0  0  0  0  0
   -2.5756    1.6781    0.0000 C   0  0  0  0  0  0  0  0  0  0  0  0
   -3.3725    1.4645    0.0000 C   0  0  0  0  0  0  0  0  0  0  0  0
   -3.5860    0.6677    0.0000 C   0  0  0  0  0  0  0  0  0  0  0  0
   -3.0026    0.0843    0.0000 C   0  0  0  0  0  0  0  0  0  0  0  0
   -2.2057    0.2978    0.0000 C   0  0  0  0  0  0  0  0  0  0  0  0
   -1.6224   -0.2855    0.0000 S   0  0  0  0  0  0  0  0  0  0  0  0
   -1.8359   -1.0824    0.0000 N   0  0  0  0  0  0  0  0  0  0  0  0
   -0.8255   -0.4991    0.0000 O   0  0  0  0  0  0  0  0  0  0  0  0
   -1.0390    0.2978    0.0000 O   0  0  0  0  0  0  0  0  0  0  0  0
   -2.6328   -1.2960    0.0000 C   0  0  0  0  0  0  0  0  0  0  0  0
   -2.8463   -2.0929    0.0000 C   0  0  0  0  0  0  0  0  0  0  0  0
   -3.2162   -0.7126    0.0000 C   0  0  0  0  0  0  0  0  0  0  0  0
   -3.4297   -1.5095    0.0000 C   0  0  0  0  0  0  0  0  0  0  0  0
    0.9364    1.0947    0.0000 C   0  0  0  0  0  0  0  0  0  0  0  0
    1.1500    0.2978    0.0000 C   0  0  0  0  0  0  0  0  0  0  0  0
    1.9468    0.0843    0.0000 C   0  0  0  0  0  0  0  0  0  0  0  0
    2.5302    0.6677    0.0000 C   0  0  0  0  0  0  0  0  0  0  0  0
    2.3167    1.4645    0.0000 C   0  0  0  0  0  0  0  0  0  0  0  0
    1.5198    1.6781    0.0000 C   0  0  0  0  0  0  0  0  0  0  0  0
    3.3271    0.4541    0.0000 N   0  0  0  0  0  0  0  0  0  0  0  0
    3.5406   -0.3428    0.0000 C   0  0  0  0  0  0  0  0  0  0  0  0
    4.3375   -0.5563    0.0000 O   0  0  0  0  0  0  0  0  0  0  0  0
    2.9573   -0.9261    0.0000 O   0  0  0  0  0  0  0  0  0  0  0  0
    4.9209    0.0271    0.0000 C   0  0  0  0  0  0  0  0  0  0  0  0
    5.7178   -0.1864    0.0000 C   0  0  0  0  0  0  0  0  0  0  0  0
    4.7074    0.8240    0.0000 C   0  0  0  0  0  0  0  0  0  0  0  0
   -5.4628   -0.3305    0.0000 C   0  0  0  0  0  0  0  0  0  0  0  0
   -4.6378   -0.3305    0.0000 C   0  0  0  0  0  0  0  0  0  0  0  0
   -4.3829    0.4541    0.0000 N   0  0  0  0  0  0  0  0  0  0  0  0
   -5.0503    0.9390    0.0000 C   0  0  0  0  0  0  0  0  0  0  0  0
   -5.7178    0.4541    0.0000 C   0  0  0  0  0  0  0  0  0  0  0  0
   -5.0503    1.7640    0.0000 O   0  0  0  0  0  0  0  0  0  0  0  0
  1  2  4  0  0  0  0
  2  3  4  0  0  0  0
  3  4  4  0  0  0  0
  4  5  4  0  0  0  0
  5  1  4  0  0  0  0
  3  6  1  0  0  0  0
  6  7  4  0  0  0  0
  7  8  4  0  0  0  0
  8  9  4  0  0  0  0
  9 10  4  0  0  0  0
 10 11  4  0  0  0  0
 11  6  4  0  0  0  0
  9 35  1  0  0  0  0
 11 12  1  0  0  0  0
 12 13  1  0  0  0  0
 12 14  2  0  0  0  0
 15 12  2  0  0  0  0
 13 16  1  0  0  0  0
 16 17  1  0  0  0  0
 16 18  1  0  0  0  0
 16 19  1  0  0  0  0
  5 20  1  0  0  0  0
 20 21  4  0  0  0  0
 21 22  4  0  0  0  0
 22 23  4  0  0  0  0
 23 24  4  0  0  0  0
 24 25  4  0  0  0  0
 25 20  4  0  0  0  0
 23 26  1  0  0  0  0
 26 27  1  0  0  0  0
 27 28  1  0  0  0  0
 27 29  2  0  0  0  0
 28 30  1  0  0  0  0
 30 31  1  0  0  0  0
 30 32  1  0  0  0  0
 33 34  1  0  0  0  0
 34 35  1  0  0  0  0
 35 36  1  0  0  0  0
 36 37  1  0  0  0  0
 37 33  1  0  0  0  0
 36 38  2  0  0  0  0
M  END
> <From>
www.bindingDB.org

> <BindingDB Reactant_set_id>
1155317

> <Ligand InChI>
InChI=1S/C27H32N4O5S2/c1-17(2)36-26(33)29-19-10-8-18(9-11-19)25-28-16-22(37-25)21-13-12-20(31-14-6-7-24(31)32)15-23(21)38(34,35)30-27(3,4)5/h8-13,15-17,30H,6-7,14H2,1-5H3,(H,29,33)

> <Ligand InChI Key>
PFMWNLOTCOOINR-UHFFFAOYSA-N

> <BindingDB MonomerID>
546467

> <BindingDB Ligand Name>
US11291655, No J4

> <Target Name>
DNA repair protein RAD51 homolog 1

> <Target Source Organism According to Curator or DataSource>
Homo sapiens

> <Ki (nM)>


> <IC50 (nM)>


> <Kd (nM)>


> <EC50 (nM)>
<5000

> <kon (M-1-s-1)>


> <koff (s-1)>


> <pH>


> <Temp C>


> <Curation/DataSource>
US Patent

> <Article DOI>


> <BindingDB Entry DOI>
10.7270/Q2NG4TV0

> <PMID>


> <PubChem AID>
aid1806421

> <Patent Number>
US11291655

> <Authors>
Castro, AC; McComas, CC; Vacca, J

> <Date of publication>
4/5/2022

> <Date in BindingDB>
7/21/2022

> <Institution>
Cyteir Therapeutics, Inc.

> <Link to Ligand in BindingDB>
http://www.bindingdb.org/bind/chemsearch/marvin/MolStructure.jsp?monomerid=546467

> <Link to Ligand-Target Pair in BindingDB>
http://www.bindingdb.org/jsp/dbsearch/PrimarySearch_ki.jsp?energyterm=kJ/mole&tag=pol&polymerid=4676&target=DNA+repair+protein+RAD51+homolog+1&column=ki&startPg=0&Increment=50&submit=Search

> <Link to Ligand-Target Pair in BindingDB>
http://www.bindingdb.org/jsp/dbsearch/PrimarySearch_ki.jsp?energyterm=kJ/mole&tag=r21&monomerid=546467&enzyme=DNA+repair+protein+RAD51+homolog+1&column=ki&startPg=0&Increment=50&submit=Search

> <Ligand HET ID in PDB>


> <PDB ID(s) for Ligand-Target Complex>


> <PubChem CID of Ligand>
137412078

> <PubChem SID of Ligand>
469681163

> <ChEBI ID of Ligand>


> <ChEMBL ID of Ligand>


> <DrugBank ID of Ligand>


> <IUPHAR_GRAC ID of Ligand>


> <KEGG ID of Ligand>


> <ZINC ID of Ligand>


> <Number of Protein Chains in Target (bigger than 1 implies a multichain complex)>
1

> <BindingDB Target Chain Sequence>
MAMQMQLEANADTSVEEESFGPQPISRLEQCGINANDVKKLEEAGFHTVEAVAYAPKKELINIKGISEAKADKILAEAAKLVPMGFTTATEFHQRRSEIIQITTGSKELDKLLQGGIETGSITEMFGEFRTGKTQICHTLAVTCQLPIDRGGGEGKAMYIDTEGTFRPERLLAVAERYGLSGSDVLDNVAYARAFNTDHQTQLLYQASAMMVESRYALLIVDSATALYRTDYSGRGELSARQMHLARFLRMLLRLADEFGVAVVITNQVVAQVDGAAMFAADPKKPIGGNIIAHASTTRLYLRKGRGETRICKIYDSPCLPEAEAMFAINADGVGDAKD

> <PDB ID(s) of Target Chain>
1N0W,5JZC,5NP7,5NWL,8BQ2,8BR2,8BSC

> <UniProt (SwissProt) Recommended Name of Target Chain>
DNA repair protein RAD51 homolog 1

> <UniProt (SwissProt) Entry Name of Target Chain>
RAD51_HUMAN

> <UniProt (SwissProt) Primary ID of Target Chain>
Q06609

> <UniProt (SwissProt) Secondary ID(s) of Target Chain>
B0FXP0 B2R8T6 Q6FHX9 Q6ZNA8 Q9BV60

> <UniProt (SwissProt) Alternative ID(s) of Target Chain>


> <UniProt (TrEMBL) Submitted Name of Target Chain>


> <UniProt (TrEMBL) Entry Name of Target Chain>


> <UniProt (TrEMBL) Primary ID of Target Chain>


> <UniProt (TrEMBL) Secondary ID(s) of Target Chain>


> <UniProt (TrEMBL) Alternative ID(s) of Target Chain>


$$$$
00329001.cdx
  Mrv0541 07212217012D          

 36 38  0  0  0  0            999 V2000
   -0.0927    0.6639    0.0000 N   0  0  0  0  0  0  0  0  0  0  0  0
   -0.9177    0.6639    0.0000 C   0  0  0  0  0  0  0  0  0  0  0  0
   -1.1726   -0.1207    0.0000 C   0  0  0  0  0  0  0  0  0  0  0  0
   -0.5052   -0.6056    0.0000 S   0  0  0  0  0  0  0  0  0  0  0  0
    0.1622   -0.1207    0.0000 C   0  0  0  0  0  0  0  0  0  0  0  0
   -1.9695   -0.3342    0.0000 C   0  0  0  0  0  0  0  0  0  0  0  0
   -2.5529    0.2491    0.0000 C   0  0  0  0  0  0  0  0  0  0  0  0
   -3.3498    0.0356    0.0000 C   0  0  0  0  0  0  0  0  0  0  0  0
   -3.5633   -0.7613    0.0000 C   0  0  0  0  0  0  0  0  0  0  0  0
   -2.9799   -1.3447    0.0000 C   0  0  0  0  0  0  0  0  0  0  0  0
   -2.1831   -1.1311    0.0000 C   0  0  0  0  0  0  0  0  0  0  0  0
   -1.5997   -1.7145    0.0000 S   0  0  0  0  0  0  0  0  0  0  0  0
   -1.8132   -2.5114    0.0000 N   0  0  0  0  0  0  0  0  0  0  0  0
   -0.8028   -1.9280    0.0000 O   0  0  0  0  0  0  0  0  0  0  0  0
   -1.0163   -1.1311    0.0000 O   0  0  0  0  0  0  0  0  0  0  0  0
   -2.6101   -2.7249    0.0000 C   0  0  0  0  0  0  0  0  0  0  0  0
   -2.8236   -3.5218    0.0000 C   0  0  0  0  0  0  0  0  0  0  0  0
   -3.1935   -2.1415    0.0000 C   0  0  0  0  0  0  0  0  0  0  0  0
   -3.4070   -2.9384    0.0000 C   0  0  0  0  0  0  0  0  0  0  0  0
    0.9591   -0.3342    0.0000 C   0  0  0  0  0  0  0  0  0  0  0  0
    1.1726   -1.1311    0.0000 C   0  0  0  0  0  0  0  0  0  0  0  0
    1.9695   -1.3447    0.0000 C   0  0  0  0  0  0  0  0  0  0  0  0
    2.5529   -0.7613    0.0000 C   0  0  0  0  0  0  0  0  0  0  0  0
    2.3394    0.0356    0.0000 N   0  0  0  0  0  0  0  0  0  0  0  0
    1.5425    0.2491    0.0000 C   0  0  0  0  0  0  0  0  0  0  0  0
    3.3498   -0.9748    0.0000 N   0  0  0  0  0  0  0  0  0  0  0  0
    3.5633   -1.7717    0.0000 C   0  0  0  0  0  0  0  0  0  0  0  0
    4.3602   -1.9852    0.0000 O   0  0  0  0  0  0  0  0  0  0  0  0
    2.9799   -2.3551    0.0000 O   0  0  0  0  0  0  0  0  0  0  0  0
    4.9436   -1.4019    0.0000 C   0  0  0  0  0  0  0  0  0  0  0  0
    5.7405   -1.6154    0.0000 C   0  0  0  0  0  0  0  0  0  0  0  0
    4.7300   -0.6050    0.0000 C   0  0  0  0  0  0  0  0  0  0  0  0
   -4.3602   -0.9748    0.0000 N   0  0  0  0  0  0  0  0  0  0  0  0
   -4.9436   -0.3915    0.0000 C   0  0  0  0  0  0  0  0  0  0  0  0
   -5.7405   -0.6050    0.0000 C   0  0  0  0  0  0  0  0  0  0  0  0
   -4.7300    0.4054    0.0000 O   0  0  0  0  0  0  0  0  0  0  0  0
  1  2  4  0  0  0  0
  2  3  4  0  0  0  0
  3  4  4  0  0  0  0
  4  5  4  0  0  0  0
  5  1  4  0  0  0  0
  3  6  1  0  0  0  0
  6  7  4  0  0  0  0
  7  8  4  0  0  0  0
  8  9  4  0  0  0  0
  9 10  4  0  0  0  0
 10 11  4  0  0  0  0
 11  6  4  0  0  0  0
  9 33  1  0  0  0  0
 11 12  1  0  0  0  0
 12 13  1  0  0  0  0
 12 14  2  0  0  0  0
 15 12  2  0  0  0  0
 13 16  1  0  0  0  0
 16 17  1  0  0  0  0
 16 18  1  0  0  0  0
 16 19  1  0  0  0  0
  5 20  1  0  0  0  0
 20 21  4  0  0  0  0
 21 22  4  0  0  0  0
 22 23  4  0  0  0  0
 23 24  4  0  0  0  0
 24 25  4  0  0  0  0
 25 20  4  0  0  0  0
 23 26  1  0  0  0  0
 26 27  1  0  0  0  0
 27 28  1  0  0  0  0
 27 29  2  0  0  0  0
 28 30  1  0  0  0  0
 30 31  1  0  0  0  0
 30 32  1  0  0  0  0
 33 34  1  0  0  0  0
 34 35  1  0  0  0  0
 34 36  2  0  0  0  0
M  END
> <From>
www.bindingDB.org

> <BindingDB Reactant_set_id>
1155318

> <Ligand InChI>
InChI=1S/C24H29N5O5S2/c1-14(2)34-23(31)28-21-10-7-16(12-25-21)22-26-13-19(35-22)18-9-8-17(27-15(3)30)11-20(18)36(32,33)29-24(4,5)6/h7-14,29H,1-6H3,(H,27,30)(H,25,28,31)

> <Ligand InChI Key>
NOJGLJMYSOCVKN-UHFFFAOYSA-N

> <BindingDB MonomerID>
546468

> <BindingDB Ligand Name>
US11291655, No J5

> <Target Name>
DNA repair protein RAD51 homolog 1

> <Target Source Organism According to Curator or DataSource>
Homo sapiens

> <Ki (nM)>


> <IC50 (nM)>


> <Kd (nM)>


> <EC50 (nM)>
<1000

> <kon (M-1-s-1)>


> <koff (s-1)>


> <pH>


> <Temp C>


> <Curation/DataSource>
US Patent

> <Article DOI>


> <BindingDB Entry DOI>
10.7270/Q2NG4TV0

> <PMID>


> <PubChem AID>
aid1806421

> <Patent Number>
US11291655

> <Authors>
Castro, AC; McComas, CC; Vacca, J

> <Date of publication>
4/5/2022

> <Date in BindingDB>
7/21/2022

> <Institution>
Cyteir Therapeutics, Inc.

> <Link to Ligand in BindingDB>
http://www.bindingdb.org/bind/chemsearch/marvin/MolStructure.jsp?monomerid=546468

> <Link to Ligand-Target Pair in BindingDB>
http://www.bindingdb.org/jsp/dbsearch/PrimarySearch_ki.jsp?energyterm=kJ/mole&tag=pol&polymerid=4676&target=DNA+repair+protein+RAD51+homolog+1&column=ki&startPg=0&Increment=50&submit=Search

> <Link to Ligand-Target Pair in BindingDB>
http://www.bindingdb.org/jsp/dbsearch/PrimarySearch_ki.jsp?energyterm=kJ/mole&tag=r21&monomerid=546468&enzyme=DNA+repair+protein+RAD51+homolog+1&column=ki&startPg=0&Increment=50&submit=Search

> <Ligand HET ID in PDB>


> <PDB ID(s) for Ligand-Target Complex>


> <PubChem CID of Ligand>
137411881

> <PubChem SID of Ligand>
469681164

> <ChEBI ID of Ligand>


> <ChEMBL ID of Ligand>


> <DrugBank ID of Ligand>


> <IUPHAR_GRAC ID of Ligand>


> <KEGG ID of Ligand>


> <ZINC ID of Ligand>


> <Number of Protein Chains in Target (bigger than 1 implies a multichain complex)>
1

> <BindingDB Target Chain Sequence>
MAMQMQLEANADTSVEEESFGPQPISRLEQCGINANDVKKLEEAGFHTVEAVAYAPKKELINIKGISEAKADKILAEAAKLVPMGFTTATEFHQRRSEIIQITTGSKELDKLLQGGIETGSITEMFGEFRTGKTQICHTLAVTCQLPIDRGGGEGKAMYIDTEGTFRPERLLAVAERYGLSGSDVLDNVAYARAFNTDHQTQLLYQASAMMVESRYALLIVDSATALYRTDYSGRGELSARQMHLARFLRMLLRLADEFGVAVVITNQVVAQVDGAAMFAADPKKPIGGNIIAHASTTRLYLRKGRGETRICKIYDSPCLPEAEAMFAINADGVGDAKD

> <PDB ID(s) of Target Chain>
1N0W,5JZC,5NP7,5NWL,8BQ2,8BR2,8BSC

> <UniProt (SwissProt) Recommended Name of Target Chain>
DNA repair protein RAD51 homolog 1

> <UniProt (SwissProt) Entry Name of Target Chain>
RAD51_HUMAN

> <UniProt (SwissProt) Primary ID of Target Chain>
Q06609

> <UniProt (SwissProt) Secondary ID(s) of Target Chain>
B0FXP0 B2R8T6 Q6FHX9 Q6ZNA8 Q9BV60

> <UniProt (SwissProt) Alternative ID(s) of Target Chain>


> <UniProt (TrEMBL) Submitted Name of Target Chain>


> <UniProt (TrEMBL) Entry Name of Target Chain>


> <UniProt (TrEMBL) Primary ID of Target Chain>


> <UniProt (TrEMBL) Secondary ID(s) of Target Chain>


> <UniProt (TrEMBL) Alternative ID(s) of Target Chain>


$$$$
00330001.cdx
  Mrv0541 07212217012D          

 36 38  0  0  0  0            999 V2000
   -0.4912    2.0929    0.0000 N   0  0  0  0  0  0  0  0  0  0  0  0
   -1.3162    2.0929    0.0000 C   0  0  0  0  0  0  0  0  0  0  0  0
   -1.5711    1.3082    0.0000 C   0  0  0  0  0  0  0  0  0  0  0  0
   -0.9037    0.8233    0.0000 S   0  0  0  0  0  0  0  0  0  0  0  0
   -0.2362    1.3082    0.0000 C   0  0  0  0  0  0  0  0  0  0  0  0
   -2.3680    1.0947    0.0000 C   0  0  0  0  0  0  0  0  0  0  0  0
   -2.9513    1.6781    0.0000 C   0  0  0  0  0  0  0  0  0  0  0  0
   -3.7482    1.4645    0.0000 C   0  0  0  0  0  0  0  0  0  0  0  0
   -3.9618    0.6677    0.0000 C   0  0  0  0  0  0  0  0  0  0  0  0
   -3.3784    0.0843    0.0000 C   0  0  0  0  0  0  0  0  0  0  0  0
   -2.5815    0.2978    0.0000 C   0  0  0  0  0  0  0  0  0  0  0  0
   -1.9981   -0.2855    0.0000 S   0  0  0  0  0  0  0  0  0  0  0  0
   -2.2117   -1.0824    0.0000 N   0  0  0  0  0  0  0  0  0  0  0  0
   -1.2013   -0.4991    0.0000 O   0  0  0  0  0  0  0  0  0  0  0  0
   -1.4148    0.2978    0.0000 O   0  0  0  0  0  0  0  0  0  0  0  0
   -3.0086   -1.2960    0.0000 C   0  0  0  0  0  0  0  0  0  0  0  0
   -3.2221   -2.0929    0.0000 C   0  0  0  0  0  0  0  0  0  0  0  0
   -3.5919   -0.7126    0.0000 C   0  0  0  0  0  0  0  0  0  0  0  0
   -3.8054   -1.5095    0.0000 C   0  0  0  0  0  0  0  0  0  0  0  0
    0.5607    1.0947    0.0000 C   0  0  0  0  0  0  0  0  0  0  0  0
    0.7742    0.2978    0.0000 C   0  0  0  0  0  0  0  0  0  0  0  0
    1.5711    0.0843    0.0000 C   0  0  0  0  0  0  0  0  0  0  0  0
    2.1545    0.6677    0.0000 C   0  0  0  0  0  0  0  0  0  0  0  0
    1.9409    1.4645    0.0000 C   0  0  0  0  0  0  0  0  0  0  0  0
    1.1440    1.6781    0.0000 C   0  0  0  0  0  0  0  0  0  0  0  0
    2.9513    0.4541    0.0000 N   0  0  0  0  0  0  0  0  0  0  0  0
    3.1649   -0.3428    0.0000 C   0  0  0  0  0  0  0  0  0  0  0  0
    3.9618   -0.5563    0.0000 O   0  0  0  0  0  0  0  0  0  0  0  0
    2.5815   -0.9261    0.0000 O   0  0  0  0  0  0  0  0  0  0  0  0
    4.5451    0.0271    0.0000 C   0  0  0  0  0  0  0  0  0  0  0  0
    5.3420   -0.1864    0.0000 C   0  0  0  0  0  0  0  0  0  0  0  0
    4.3316    0.8240    0.0000 C   0  0  0  0  0  0  0  0  0  0  0  0
   -4.7586    0.4541    0.0000 C   0  0  0  0  0  0  0  0  0  0  0  0
   -5.3420    1.0375    0.0000 F   0  0  0  0  0  0  0  0  0  0  0  0
   -4.9722   -0.3428    0.0000 F   0  0  0  0  0  0  0  0  0  0  0  0
   -4.5451    1.2510    0.0000 F   0  0  0  0  0  0  0  0  0  0  0  0
  1  2  4  0  0  0  0
  2  3  4  0  0  0  0
  3  4  4  0  0  0  0
  4  5  4  0  0  0  0
  5  1  4  0  0  0  0
  3  6  1  0  0  0  0
  6  7  4  0  0  0  0
  7  8  4  0  0  0  0
  8  9  4  0  0  0  0
  9 10  4  0  0  0  0
 10 11  4  0  0  0  0
 11  6  4  0  0  0  0
  9 33  1  0  0  0  0
 11 12  1  0  0  0  0
 12 13  1  0  0  0  0
 12 14  2  0  0  0  0
 15 12  2  0  0  0  0
 13 16  1  0  0  0  0
 16 17  1  0  0  0  0
 16 18  1  0  0  0  0
 16 19  1  0  0  0  0
  5 20  1  0  0  0  0
 20 21  4  0  0  0  0
 21 22  4  0  0  0  0
 22 23  4  0  0  0  0
 23 24  4  0  0  0  0
 24 25  4  0  0  0  0
 25 20  4  0  0  0  0
 23 26  1  0  0  0  0
 26 27  1  0  0  0  0
 27 28  1  0  0  0  0
 27 29  2  0  0  0  0
 28 30  1  0  0  0  0
 30 31  1  0  0  0  0
 30 32  1  0  0  0  0
 33 34  1  0  0  0  0
 33 35  1  0  0  0  0
 33 36  1  0  0  0  0
M  END
> <From>
www.bindingDB.org

> <BindingDB Reactant_set_id>
1155319

> <Ligand InChI>
InChI=1S/C24H26F3N3O4S2/c1-14(2)34-22(31)29-17-9-6-15(7-10-17)21-28-13-19(35-21)18-11-8-16(24(25,26)27)12-20(18)36(32,33)30-23(3,4)5/h6-14,30H,1-5H3,(H,29,31)

> <Ligand InChI Key>
TXMDGHOUMOFNDH-UHFFFAOYSA-N

> <BindingDB MonomerID>
546469

> <BindingDB Ligand Name>
US11291655, No J6

> <Target Name>
DNA repair protein RAD51 homolog 1

> <Target Source Organism According to Curator or DataSource>
Homo sapiens

> <Ki (nM)>


> <IC50 (nM)>


> <Kd (nM)>


> <EC50 (nM)>
<10000

> <kon (M-1-s-1)>


> <koff (s-1)>


> <pH>


> <Temp C>


> <Curation/DataSource>
US Patent

> <Article DOI>


> <BindingDB Entry DOI>
10.7270/Q2NG4TV0

> <PMID>


> <PubChem AID>
aid1806421

> <Patent Number>
US11291655

> <Authors>
Castro, AC; McComas, CC; Vacca, J

> <Date of publication>
4/5/2022

> <Date in BindingDB>
7/21/2022

> <Institution>
Cyteir Therapeutics, Inc.

> <Link to Ligand in BindingDB>
http://www.bindingdb.org/bind/chemsearch/marvin/MolStructure.jsp?monomerid=546469

> <Link to Ligand-Target Pair in BindingDB>
http://www.bindingdb.org/jsp/dbsearch/PrimarySearch_ki.jsp?energyterm=kJ/mole&tag=pol&polymerid=4676&target=DNA+repair+protein+RAD51+homolog+1&column=ki&startPg=0&Increment=50&submit=Search

> <Link to Ligand-Target Pair in BindingDB>
http://www.bindingdb.org/jsp/dbsearch/PrimarySearch_ki.jsp?energyterm=kJ/mole&tag=r21&monomerid=546469&enzyme=DNA+repair+protein+RAD51+homolog+1&column=ki&startPg=0&Increment=50&submit=Search

> <Ligand HET ID in PDB>


> <PDB ID(s) for Ligand-Target Complex>


> <PubChem CID of Ligand>
137411811

> <PubChem SID of Ligand>
469681165

> <ChEBI ID of Ligand>


> <ChEMBL ID of Ligand>


> <DrugBank ID of Ligand>


> <IUPHAR_GRAC ID of Ligand>


> <KEGG ID of Ligand>


> <ZINC ID of Ligand>


> <Number of Protein Chains in Target (bigger than 1 implies a multichain complex)>
1

> <BindingDB Target Chain Sequence>
MAMQMQLEANADTSVEEESFGPQPISRLEQCGINANDVKKLEEAGFHTVEAVAYAPKKELINIKGISEAKADKILAEAAKLVPMGFTTATEFHQRRSEIIQITTGSKELDKLLQGGIETGSITEMFGEFRTGKTQICHTLAVTCQLPIDRGGGEGKAMYIDTEGTFRPERLLAVAERYGLSGSDVLDNVAYARAFNTDHQTQLLYQASAMMVESRYALLIVDSATALYRTDYSGRGELSARQMHLARFLRMLLRLADEFGVAVVITNQVVAQVDGAAMFAADPKKPIGGNIIAHASTTRLYLRKGRGETRICKIYDSPCLPEAEAMFAINADGVGDAKD

> <PDB ID(s) of Target Chain>
1N0W,5JZC,5NP7,5NWL,8BQ2,8BR2,8BSC

> <UniProt (SwissProt) Recommended Name of Target Chain>
DNA repair protein RAD51 homolog 1

> <UniProt (SwissProt) Entry Name of Target Chain>
RAD51_HUMAN

> <UniProt (SwissProt) Primary ID of Target Chain>
Q06609

> <UniProt (SwissProt) Secondary ID(s) of Target Chain>
B0FXP0 B2R8T6 Q6FHX9 Q6ZNA8 Q9BV60

> <UniProt (SwissProt) Alternative ID(s) of Target Chain>


> <UniProt (TrEMBL) Submitted Name of Target Chain>


> <UniProt (TrEMBL) Entry Name of Target Chain>


> <UniProt (TrEMBL) Primary ID of Target Chain>


> <UniProt (TrEMBL) Secondary ID(s) of Target Chain>


> <UniProt (TrEMBL) Alternative ID(s) of Target Chain>


$$$$
00331001.cdx
  Mrv0541 07212217012D          

 38 41  0  0  0  0            999 V2000
   -0.1154    2.0929    0.0000 N   0  0  0  0  0  0  0  0  0  0  0  0
   -0.9404    2.0929    0.0000 C   0  0  0  0  0  0  0  0  0  0  0  0
   -1.1953    1.3082    0.0000 C   0  0  0  0  0  0  0  0  0  0  0  0
   -0.5279    0.8233    0.0000 S   0  0  0  0  0  0  0  0  0  0  0  0
    0.1395    1.3082    0.0000 C   0  0  0  0  0  0  0  0  0  0  0  0
   -1.9922    1.0947    0.0000 C   0  0  0  0  0  0  0  0  0  0  0  0
   -2.5756    1.6781    0.0000 C   0  0  0  0  0  0  0  0  0  0  0  0
   -3.3725    1.4645    0.0000 C   0  0  0  0  0  0  0  0  0  0  0  0
   -3.5860    0.6677    0.0000 C   0  0  0  0  0  0  0  0  0  0  0  0
   -3.0026    0.0843    0.0000 C   0  0  0  0  0  0  0  0  0  0  0  0
   -2.2057    0.2978    0.0000 C   0  0  0  0  0  0  0  0  0  0  0  0
   -1.6224   -0.2855    0.0000 S   0  0  0  0  0  0  0  0  0  0  0  0
   -1.8359   -1.0824    0.0000 N   0  0  0  0  0  0  0  0  0  0  0  0
   -0.8255   -0.4991    0.0000 O   0  0  0  0  0  0  0  0  0  0  0  0
   -1.0390    0.2978    0.0000 O   0  0  0  0  0  0  0  0  0  0  0  0
   -2.6328   -1.2960    0.0000 C   0  0  0  0  0  0  0  0  0  0  0  0
   -2.8463   -2.0929    0.0000 C   0  0  0  0  0  0  0  0  0  0  0  0
   -3.2162   -0.7126    0.0000 C   0  0  0  0  0  0  0  0  0  0  0  0
   -3.4297   -1.5095    0.0000 C   0  0  0  0  0  0  0  0  0  0  0  0
    0.9364    1.0947    0.0000 C   0  0  0  0  0  0  0  0  0  0  0  0
    1.1500    0.2978    0.0000 C   0  0  0  0  0  0  0  0  0  0  0  0
    1.9468    0.0843    0.0000 C   0  0  0  0  0  0  0  0  0  0  0  0
    2.5302    0.6677    0.0000 C   0  0  0  0  0  0  0  0  0  0  0  0
    2.3167    1.4645    0.0000 C   0  0  0  0  0  0  0  0  0  0  0  0
    1.5198    1.6781    0.0000 C   0  0  0  0  0  0  0  0  0  0  0  0
    3.3271    0.4541    0.0000 N   0  0  0  0  0  0  0  0  0  0  0  0
    3.5406   -0.3428    0.0000 C   0  0  0  0  0  0  0  0  0  0  0  0
    4.3375   -0.5563    0.0000 N   0  0  0  0  0  0  0  0  0  0  0  0
    2.9573   -0.9261    0.0000 O   0  0  0  0  0  0  0  0  0  0  0  0
    4.9209    0.0271    0.0000 C   0  0  0  0  0  0  0  0  0  0  0  0
    5.7178   -0.1864    0.0000 C   0  0  0  0  0  0  0  0  0  0  0  0
    4.7074    0.8240    0.0000 C   0  0  0  0  0  0  0  0  0  0  0  0
   -5.4628   -0.3305    0.0000 C   0  0  0  0  0  0  0  0  0  0  0  0
   -4.6378   -0.3305    0.0000 C   0  0  0  0  0  0  0  0  0  0  0  0
   -4.3829    0.4541    0.0000 N   0  0  0  0  0  0  0  0  0  0  0  0
   -5.0503    0.9390    0.0000 C   0  0  0  0  0  0  0  0  0  0  0  0
   -5.7178    0.4541    0.0000 C   0  0  0  0  0  0  0  0  0  0  0  0
   -5.0503    1.7640    0.0000 O   0  0  0  0  0  0  0  0  0  0  0  0
  1  2  4  0  0  0  0
  2  3  4  0  0  0  0
  3  4  4  0  0  0  0
  4  5  4  0  0  0  0
  5  1  4  0  0  0  0
  3  6  1  0  0  0  0
  6  7  4  0  0  0  0
  7  8  4  0  0  0  0
  8  9  4  0  0  0  0
  9 10  4  0  0  0  0
 10 11  4  0  0  0  0
 11  6  4  0  0  0  0
  9 35  1  0  0  0  0
 11 12  1  0  0  0  0
 12 13  1  0  0  0  0
 12 14  2  0  0  0  0
 15 12  2  0  0  0  0
 13 16  1  0  0  0  0
 16 17  1  0  0  0  0
 16 18  1  0  0  0  0
 16 19  1  0  0  0  0
  5 20  1  0  0  0  0
 20 21  4  0  0  0  0
 21 22  4  0  0  0  0
 22 23  4  0  0  0  0
 23 24  4  0  0  0  0
 24 25  4  0  0  0  0
 25 20  4  0  0  0  0
 23 26  1  0  0  0  0
 26 27  1  0  0  0  0
 27 28  1  0  0  0  0
 27 29  2  0  0  0  0
 28 30  1  0  0  0  0
 30 31  1  0  0  0  0
 30 32  1  0  0  0  0
 33 34  1  0  0  0  0
 34 35  1  0  0  0  0
 35 36  1  0  0  0  0
 36 37  1  0  0  0  0
 37 33  1  0  0  0  0
 36 38  2  0  0  0  0
M  END
> <From>
www.bindingDB.org

> <BindingDB Reactant_set_id>
1155320

> <Ligand InChI>
InChI=1S/C27H33N5O4S2/c1-17(2)29-26(34)30-19-10-8-18(9-11-19)25-28-16-22(37-25)21-13-12-20(32-14-6-7-24(32)33)15-23(21)38(35,36)31-27(3,4)5/h8-13,15-17,31H,6-7,14H2,1-5H3,(H2,29,30,34)

> <Ligand InChI Key>
XBLKDBVRAANGPL-UHFFFAOYSA-N

> <BindingDB MonomerID>
546470

> <BindingDB Ligand Name>
US11291655, No J7

> <Target Name>
DNA repair protein RAD51 homolog 1

> <Target Source Organism According to Curator or DataSource>
Homo sapiens

> <Ki (nM)>


> <IC50 (nM)>


> <Kd (nM)>


> <EC50 (nM)>
<10000

> <kon (M-1-s-1)>


> <koff (s-1)>


> <pH>


> <Temp C>


> <Curation/DataSource>
US Patent

> <Article DOI>


> <BindingDB Entry DOI>
10.7270/Q2NG4TV0

> <PMID>


> <PubChem AID>
aid1806421

> <Patent Number>
US11291655

> <Authors>
Castro, AC; McComas, CC; Vacca, J

> <Date of publication>
4/5/2022

> <Date in BindingDB>
7/21/2022

> <Institution>
Cyteir Therapeutics, Inc.

> <Link to Ligand in BindingDB>
http://www.bindingdb.org/bind/chemsearch/marvin/MolStructure.jsp?monomerid=546470

> <Link to Ligand-Target Pair in BindingDB>
http://www.bindingdb.org/jsp/dbsearch/PrimarySearch_ki.jsp?energyterm=kJ/mole&tag=pol&polymerid=4676&target=DNA+repair+protein+RAD51+homolog+1&column=ki&startPg=0&Increment=50&submit=Search

> <Link to Ligand-Target Pair in BindingDB>
http://www.bindingdb.org/jsp/dbsearch/PrimarySearch_ki.jsp?energyterm=kJ/mole&tag=r21&monomerid=546470&enzyme=DNA+repair+protein+RAD51+homolog+1&column=ki&startPg=0&Increment=50&submit=Search

> <Ligand HET ID in PDB>


> <PDB ID(s) for Ligand-Target Complex>


> <PubChem CID of Ligand>
137412085

> <PubChem SID of Ligand>
469681166

> <ChEBI ID of Ligand>


> <ChEMBL ID of Ligand>


> <DrugBank ID of Ligand>


> <IUPHAR_GRAC ID of Ligand>


> <KEGG ID of Ligand>


> <ZINC ID of Ligand>


> <Number of Protein Chains in Target (bigger than 1 implies a multichain complex)>
1

> <BindingDB Target Chain Sequence>
MAMQMQLEANADTSVEEESFGPQPISRLEQCGINANDVKKLEEAGFHTVEAVAYAPKKELINIKGISEAKADKILAEAAKLVPMGFTTATEFHQRRSEIIQITTGSKELDKLLQGGIETGSITEMFGEFRTGKTQICHTLAVTCQLPIDRGGGEGKAMYIDTEGTFRPERLLAVAERYGLSGSDVLDNVAYARAFNTDHQTQLLYQASAMMVESRYALLIVDSATALYRTDYSGRGELSARQMHLARFLRMLLRLADEFGVAVVITNQVVAQVDGAAMFAADPKKPIGGNIIAHASTTRLYLRKGRGETRICKIYDSPCLPEAEAMFAINADGVGDAKD

> <PDB ID(s) of Target Chain>
1N0W,5JZC,5NP7,5NWL,8BQ2,8BR2,8BSC

> <UniProt (SwissProt) Recommended Name of Target Chain>
DNA repair protein RAD51 homolog 1

> <UniProt (SwissProt) Entry Name of Target Chain>
RAD51_HUMAN

> <UniProt (SwissProt) Primary ID of Target Chain>
Q06609

> <UniProt (SwissProt) Secondary ID(s) of Target Chain>
B0FXP0 B2R8T6 Q6FHX9 Q6ZNA8 Q9BV60

> <UniProt (SwissProt) Alternative ID(s) of Target Chain>


> <UniProt (TrEMBL) Submitted Name of Target Chain>


> <UniProt (TrEMBL) Entry Name of Target Chain>


> <UniProt (TrEMBL) Primary ID of Target Chain>


> <UniProt (TrEMBL) Secondary ID(s) of Target Chain>


> <UniProt (TrEMBL) Alternative ID(s) of Target Chain>


$$$$
00332001.cdx
  Mrv0541 07212217012D          

 39 42  0  0  0  0            999 V2000
   -0.1154    2.0929    0.0000 N   0  0  0  0  0  0  0  0  0  0  0  0
   -0.9404    2.0929    0.0000 C   0  0  0  0  0  0  0  0  0  0  0  0
   -1.1953    1.3082    0.0000 C   0  0  0  0  0  0  0  0  0  0  0  0
   -0.5279    0.8233    0.0000 S   0  0  0  0  0  0  0  0  0  0  0  0
    0.1395    1.3082    0.0000 C   0  0  0  0  0  0  0  0  0  0  0  0
   -1.9922    1.0947    0.0000 C   0  0  0  0  0  0  0  0  0  0  0  0
   -2.5756    1.6781    0.0000 C   0  0  0  0  0  0  0  0  0  0  0  0
   -3.3725    1.4645    0.0000 C   0  0  0  0  0  0  0  0  0  0  0  0
   -3.5860    0.6677    0.0000 C   0  0  0  0  0  0  0  0  0  0  0  0
   -3.0026    0.0843    0.0000 C   0  0  0  0  0  0  0  0  0  0  0  0
   -2.2057    0.2978    0.0000 C   0  0  0  0  0  0  0  0  0  0  0  0
   -1.6224   -0.2855    0.0000 S   0  0  0  0  0  0  0  0  0  0  0  0
   -1.8359   -1.0824    0.0000 N   0  0  0  0  0  0  0  0  0  0  0  0
   -0.8255   -0.4991    0.0000 O   0  0  0  0  0  0  0  0  0  0  0  0
   -1.0390    0.2978    0.0000 O   0  0  0  0  0  0  0  0  0  0  0  0
   -2.6328   -1.2960    0.0000 C   0  0  0  0  0  0  0  0  0  0  0  0
   -2.8463   -2.0929    0.0000 C   0  0  0  0  0  0  0  0  0  0  0  0
   -3.2162   -0.7126    0.0000 C   0  0  0  0  0  0  0  0  0  0  0  0
   -3.4297   -1.5095    0.0000 C   0  0  0  0  0  0  0  0  0  0  0  0
    0.9364    1.0947    0.0000 C   0  0  0  0  0  0  0  0  0  0  0  0
    1.1500    0.2978    0.0000 C   0  0  0  0  0  0  0  0  0  0  0  0
    1.9468    0.0843    0.0000 C   0  0  0  0  0  0  0  0  0  0  0  0
    2.5302    0.6677    0.0000 C   0  0  0  0  0  0  0  0  0  0  0  0
    2.3167    1.4645    0.0000 C   0  0  0  0  0  0  0  0  0  0  0  0
    1.5198    1.6781    0.0000 C   0  0  0  0  0  0  0  0  0  0  0  0
    3.3271    0.4541    0.0000 N   0  0  0  0  0  0  0  0  0  0  0  0
    3.5406   -0.3428    0.0000 C   0  0  0  0  0  0  0  0  0  0  0  0
    4.3375   -0.5563    0.0000 O   0  0  0  0  0  0  0  0  0  0  0  0
    2.9573   -0.9261    0.0000 O   0  0  0  0  0  0  0  0  0  0  0  0
    4.9209    0.0271    0.0000 C   0  0  0  0  0  0  0  0  0  0  0  0
    5.7178   -0.1864    0.0000 C   0  0  0  0  0  0  0  0  0  0  0  0
    4.7074    0.8240    0.0000 C   0  0  0  0  0  0  0  0  0  0  0  0
   -5.4628   -0.3305    0.0000 C   0  0  0  0  0  0  0  0  0  0  0  0
   -4.6378   -0.3305    0.0000 C   0  0  0  0  0  0  0  0  0  0  0  0
   -4.3829    0.4541    0.0000 N   0  0  0  0  0  0  0  0  0  0  0  0
   -5.0503    0.9390    0.0000 C   0  0  0  0  0  0  0  0  0  0  0  0
   -5.7178    0.4541    0.0000 C   0  0  0  0  0  0  0  0  0  0  0  0
   -5.0503    1.7640    0.0000 O   0  0  0  0  0  0  0  0  0  0  0  0
    3.9105    1.0375    0.0000 C   0  0  0  0  0  0  0  0  0  0  0  0
  1  2  4  0  0  0  0
  2  3  4  0  0  0  0
  3  4  4  0  0  0  0
  4  5  4  0  0  0  0
  5  1  4  0  0  0  0
  3  6  1  0  0  0  0
  6  7  4  0  0  0  0
  7  8  4  0  0  0  0
  8  9  4  0  0  0  0
  9 10  4  0  0  0  0
 10 11  4  0  0  0  0
 11  6  4  0  0  0  0
  9 35  1  0  0  0  0
 11 12  1  0  0  0  0
 12 13  1  0  0  0  0
 12 14  2  0  0  0  0
 15 12  2  0  0  0  0
 13 16  1  0  0  0  0
 16 17  1  0  0  0  0
 16 18  1  0  0  0  0
 16 19  1  0  0  0  0
  5 20  1  0  0  0  0
 20 21  4  0  0  0  0
 21 22  4  0  0  0  0
 22 23  4  0  0  0  0
 23 24  4  0  0  0  0
 24 25  4  0  0  0  0
 25 20  4  0  0  0  0
 23 26  1  0  0  0  0
 26 27  1  0  0  0  0
 27 28  1  0  0  0  0
 27 29  2  0  0  0  0
 28 30  1  0  0  0  0
 30 31  1  0  0  0  0
 30 32  1  0  0  0  0
 33 34  1  0  0  0  0
 34 35  1  0  0  0  0
 35 36  1  0  0  0  0
 36 37  1  0  0  0  0
 37 33  1  0  0  0  0
 36 38  2  0  0  0  0
 26 39  1  0  0  0  0
M  END
> <From>
www.bindingDB.org

> <BindingDB Reactant_set_id>
1155321

> <Ligand InChI>
InChI=1S/C28H34N4O5S2/c1-18(2)37-27(34)31(6)20-11-9-19(10-12-20)26-29-17-23(38-26)22-14-13-21(32-15-7-8-25(32)33)16-24(22)39(35,36)30-28(3,4)5/h9-14,16-18,30H,7-8,15H2,1-6H3

> <Ligand InChI Key>
CGUUWOMJLCUPGQ-UHFFFAOYSA-N

> <BindingDB MonomerID>
546471

> <BindingDB Ligand Name>
US11291655, No J8

> <Target Name>
DNA repair protein RAD51 homolog 1

> <Target Source Organism According to Curator or DataSource>
Homo sapiens

> <Ki (nM)>


> <IC50 (nM)>


> <Kd (nM)>


> <EC50 (nM)>
<10000

> <kon (M-1-s-1)>


> <koff (s-1)>


> <pH>


> <Temp C>


> <Curation/DataSource>
US Patent

> <Article DOI>


> <BindingDB Entry DOI>
10.7270/Q2NG4TV0

> <PMID>


> <PubChem AID>
aid1806421

> <Patent Number>
US11291655

> <Authors>
Castro, AC; McComas, CC; Vacca, J

> <Date of publication>
4/5/2022

> <Date in BindingDB>
7/21/2022

> <Institution>
Cyteir Therapeutics, Inc.

> <Link to Ligand in BindingDB>
http://www.bindingdb.org/bind/chemsearch/marvin/MolStructure.jsp?monomerid=546471

> <Link to Ligand-Target Pair in BindingDB>
http://www.bindingdb.org/jsp/dbsearch/PrimarySearch_ki.jsp?energyterm=kJ/mole&tag=pol&polymerid=4676&target=DNA+repair+protein+RAD51+homolog+1&column=ki&startPg=0&Increment=50&submit=Search

> <Link to Ligand-Target Pair in BindingDB>
http://www.bindingdb.org/jsp/dbsearch/PrimarySearch_ki.jsp?energyterm=kJ/mole&tag=r21&monomerid=546471&enzyme=DNA+repair+protein+RAD51+homolog+1&column=ki&startPg=0&Increment=50&submit=Search

> <Ligand HET ID in PDB>


> <PDB ID(s) for Ligand-Target Complex>


> <PubChem CID of Ligand>
137408616

> <PubChem SID of Ligand>
469681167

> <ChEBI ID of Ligand>


> <ChEMBL ID of Ligand>


> <DrugBank ID of Ligand>


> <IUPHAR_GRAC ID of Ligand>


> <KEGG ID of Ligand>


> <ZINC ID of Ligand>


> <Number of Protein Chains in Target (bigger than 1 implies a multichain complex)>
1

> <BindingDB Target Chain Sequence>
MAMQMQLEANADTSVEEESFGPQPISRLEQCGINANDVKKLEEAGFHTVEAVAYAPKKELINIKGISEAKADKILAEAAKLVPMGFTTATEFHQRRSEIIQITTGSKELDKLLQGGIETGSITEMFGEFRTGKTQICHTLAVTCQLPIDRGGGEGKAMYIDTEGTFRPERLLAVAERYGLSGSDVLDNVAYARAFNTDHQTQLLYQASAMMVESRYALLIVDSATALYRTDYSGRGELSARQMHLARFLRMLLRLADEFGVAVVITNQVVAQVDGAAMFAADPKKPIGGNIIAHASTTRLYLRKGRGETRICKIYDSPCLPEAEAMFAINADGVGDAKD

> <PDB ID(s) of Target Chain>
1N0W,5JZC,5NP7,5NWL,8BQ2,8BR2,8BSC

> <UniProt (SwissProt) Recommended Name of Target Chain>
DNA repair protein RAD51 homolog 1

> <UniProt (SwissProt) Entry Name of Target Chain>
RAD51_HUMAN

> <UniProt (SwissProt) Primary ID of Target Chain>
Q06609

> <UniProt (SwissProt) Secondary ID(s) of Target Chain>
B0FXP0 B2R8T6 Q6FHX9 Q6ZNA8 Q9BV60

> <UniProt (SwissProt) Alternative ID(s) of Target Chain>


> <UniProt (TrEMBL) Submitted Name of Target Chain>


> <UniProt (TrEMBL) Entry Name of Target Chain>


> <UniProt (TrEMBL) Primary ID of Target Chain>


> <UniProt (TrEMBL) Secondary ID(s) of Target Chain>


> <UniProt (TrEMBL) Alternative ID(s) of Target Chain>


$$$$
00333001.cdx
  Mrv0541 07212217012D          

 39 42  0  0  0  0            999 V2000
   -0.1154    2.0929    0.0000 N   0  0  0  0  0  0  0  0  0  0  0  0
   -0.9404    2.0929    0.0000 C   0  0  0  0  0  0  0  0  0  0  0  0
   -1.1953    1.3082    0.0000 C   0  0  0  0  0  0  0  0  0  0  0  0
   -0.5279    0.8233    0.0000 S   0  0  0  0  0  0  0  0  0  0  0  0
    0.1395    1.3082    0.0000 C   0  0  0  0  0  0  0  0  0  0  0  0
   -1.9922    1.0947    0.0000 C   0  0  0  0  0  0  0  0  0  0  0  0
   -2.5756    1.6781    0.0000 C   0  0  0  0  0  0  0  0  0  0  0  0
   -3.3725    1.4645    0.0000 C   0  0  0  0  0  0  0  0  0  0  0  0
   -3.5860    0.6677    0.0000 C   0  0  0  0  0  0  0  0  0  0  0  0
   -3.0026    0.0843    0.0000 C   0  0  0  0  0  0  0  0  0  0  0  0
   -2.2057    0.2978    0.0000 C   0  0  0  0  0  0  0  0  0  0  0  0
   -1.6224   -0.2855    0.0000 S   0  0  0  0  0  0  0  0  0  0  0  0
   -1.8359   -1.0824    0.0000 N   0  0  0  0  0  0  0  0  0  0  0  0
   -0.8255   -0.4991    0.0000 O   0  0  0  0  0  0  0  0  0  0  0  0
   -1.0390    0.2978    0.0000 O   0  0  0  0  0  0  0  0  0  0  0  0
   -2.6328   -1.2960    0.0000 C   0  0  0  0  0  0  0  0  0  0  0  0
   -2.8463   -2.0929    0.0000 C   0  0  0  0  0  0  0  0  0  0  0  0
   -3.2162   -0.7126    0.0000 C   0  0  0  0  0  0  0  0  0  0  0  0
   -3.4297   -1.5095    0.0000 C   0  0  0  0  0  0  0  0  0  0  0  0
    0.9364    1.0947    0.0000 C   0  0  0  0  0  0  0  0  0  0  0  0
    1.1500    0.2978    0.0000 C   0  0  0  0  0  0  0  0  0  0  0  0
    1.9468    0.0843    0.0000 C   0  0  0  0  0  0  0  0  0  0  0  0
    2.5302    0.6677    0.0000 C   0  0  0  0  0  0  0  0  0  0  0  0
    2.3167    1.4645    0.0000 C   0  0  0  0  0  0  0  0  0  0  0  0
    1.5198    1.6781    0.0000 C   0  0  0  0  0  0  0  0  0  0  0  0
    3.3271    0.4541    0.0000 N   0  0  0  0  0  0  0  0  0  0  0  0
    3.5406   -0.3428    0.0000 C   0  0  0  0  0  0  0  0  0  0  0  0
    4.3375   -0.5563    0.0000 O   0  0  0  0  0  0  0  0  0  0  0  0
    2.9573   -0.9261    0.0000 O   0  0  0  0  0  0  0  0  0  0  0  0
    4.9209    0.0271    0.0000 C   0  0  0  0  0  0  0  0  0  0  0  0
    5.7178   -0.1864    0.0000 C   0  0  0  0  0  0  0  0  0  0  0  0
    4.7074    0.8240    0.0000 C   0  0  0  0  0  0  0  0  0  0  0  0
   -5.4628   -0.3305    0.0000 C   0  0  0  0  0  0  0  0  0  0  0  0
   -4.6378   -0.3305    0.0000 C   0  0  0  0  0  0  0  0  0  0  0  0
   -4.3829    0.4541    0.0000 N   0  0  0  0  0  0  0  0  0  0  0  0
   -5.0503    0.9390    0.0000 C   0  0  0  0  0  0  0  0  0  0  0  0
   -5.7178    0.4541    0.0000 C   0  0  0  0  0  0  0  0  0  0  0  0
   -5.0503    1.7640    0.0000 O   0  0  0  0  0  0  0  0  0  0  0  0
    2.9000    2.0479    0.0000 F   0  0  0  0  0  0  0  0  0  0  0  0
  1  2  4  0  0  0  0
  2  3  4  0  0  0  0
  3  4  4  0  0  0  0
  4  5  4  0  0  0  0
  5  1  4  0  0  0  0
  3  6  1  0  0  0  0
  6  7  4  0  0  0  0
  7  8  4  0  0  0  0
  8  9  4  0  0  0  0
  9 10  4  0  0  0  0
 10 11  4  0  0  0  0
 11  6  4  0  0  0  0
  9 35  1  0  0  0  0
 11 12  1  0  0  0  0
 12 13  1  0  0  0  0
 12 14  2  0  0  0  0
 15 12  2  0  0  0  0
 13 16  1  0  0  0  0
 16 17  1  0  0  0  0
 16 18  1  0  0  0  0
 16 19  1  0  0  0  0
  5 20  1  0  0  0  0
 20 21  4  0  0  0  0
 21 22  4  0  0  0  0
 22 23  4  0  0  0  0
 23 24  4  0  0  0  0
 24 25  4  0  0  0  0
 25 20  4  0  0  0  0
 23 26  1  0  0  0  0
 26 27  1  0  0  0  0
 27 28  1  0  0  0  0
 27 29  2  0  0  0  0
 28 30  1  0  0  0  0
 30 31  1  0  0  0  0
 30 32  1  0  0  0  0
 33 34  1  0  0  0  0
 34 35  1  0  0  0  0
 35 36  1  0  0  0  0
 36 37  1  0  0  0  0
 37 33  1  0  0  0  0
 36 38  2  0  0  0  0
 24 39  1  0  0  0  0
M  END
> <From>
www.bindingDB.org

> <BindingDB Reactant_set_id>
1155322

> <Ligand InChI>
InChI=1S/C27H31FN4O5S2/c1-16(2)37-26(34)30-21-11-8-17(13-20(21)28)25-29-15-22(38-25)19-10-9-18(32-12-6-7-24(32)33)14-23(19)39(35,36)31-27(3,4)5/h8-11,13-16,31H,6-7,12H2,1-5H3,(H,30,34)

> <Ligand InChI Key>
XITWBAQAFXZKOF-UHFFFAOYSA-N

> <BindingDB MonomerID>
546472

> <BindingDB Ligand Name>
US11291655, No J9

> <Target Name>
DNA repair protein RAD51 homolog 1

> <Target Source Organism According to Curator or DataSource>
Homo sapiens

> <Ki (nM)>


> <IC50 (nM)>


> <Kd (nM)>


> <EC50 (nM)>
<5000

> <kon (M-1-s-1)>


> <koff (s-1)>


> <pH>


> <Temp C>


> <Curation/DataSource>
US Patent

> <Article DOI>


> <BindingDB Entry DOI>
10.7270/Q2NG4TV0

> <PMID>


> <PubChem AID>
aid1806421

> <Patent Number>
US11291655

> <Authors>
Castro, AC; McComas, CC; Vacca, J

> <Date of publication>
4/5/2022

> <Date in BindingDB>
7/21/2022

> <Institution>
Cyteir Therapeutics, Inc.

> <Link to Ligand in BindingDB>
http://www.bindingdb.org/bind/chemsearch/marvin/MolStructure.jsp?monomerid=546472

> <Link to Ligand-Target Pair in BindingDB>
http://www.bindingdb.org/jsp/dbsearch/PrimarySearch_ki.jsp?energyterm=kJ/mole&tag=pol&polymerid=4676&target=DNA+repair+protein+RAD51+homolog+1&column=ki&startPg=0&Increment=50&submit=Search

> <Link to Ligand-Target Pair in BindingDB>
http://www.bindingdb.org/jsp/dbsearch/PrimarySearch_ki.jsp?energyterm=kJ/mole&tag=r21&monomerid=546472&enzyme=DNA+repair+protein+RAD51+homolog+1&column=ki&startPg=0&Increment=50&submit=Search

> <Ligand HET ID in PDB>


> <PDB ID(s) for Ligand-Target Complex>


> <PubChem CID of Ligand>
137408580

> <PubChem SID of Ligand>
469681168

> <ChEBI ID of Ligand>


> <ChEMBL ID of Ligand>


> <DrugBank ID of Ligand>


> <IUPHAR_GRAC ID of Ligand>


> <KEGG ID of Ligand>


> <ZINC ID of Ligand>


> <Number of Protein Chains in Target (bigger than 1 implies a multichain complex)>
1

> <BindingDB Target Chain Sequence>
MAMQMQLEANADTSVEEESFGPQPISRLEQCGINANDVKKLEEAGFHTVEAVAYAPKKELINIKGISEAKADKILAEAAKLVPMGFTTATEFHQRRSEIIQITTGSKELDKLLQGGIETGSITEMFGEFRTGKTQICHTLAVTCQLPIDRGGGEGKAMYIDTEGTFRPERLLAVAERYGLSGSDVLDNVAYARAFNTDHQTQLLYQASAMMVESRYALLIVDSATALYRTDYSGRGELSARQMHLARFLRMLLRLADEFGVAVVITNQVVAQVDGAAMFAADPKKPIGGNIIAHASTTRLYLRKGRGETRICKIYDSPCLPEAEAMFAINADGVGDAKD

> <PDB ID(s) of Target Chain>
1N0W,5JZC,5NP7,5NWL,8BQ2,8BR2,8BSC

> <UniProt (SwissProt) Recommended Name of Target Chain>
DNA repair protein RAD51 homolog 1

> <UniProt (SwissProt) Entry Name of Target Chain>
RAD51_HUMAN

> <UniProt (SwissProt) Primary ID of Target Chain>
Q06609

> <UniProt (SwissProt) Secondary ID(s) of Target Chain>
B0FXP0 B2R8T6 Q6FHX9 Q6ZNA8 Q9BV60

> <UniProt (SwissProt) Alternative ID(s) of Target Chain>


> <UniProt (TrEMBL) Submitted Name of Target Chain>


> <UniProt (TrEMBL) Entry Name of Target Chain>


> <UniProt (TrEMBL) Primary ID of Target Chain>


> <UniProt (TrEMBL) Secondary ID(s) of Target Chain>


> <UniProt (TrEMBL) Alternative ID(s) of Target Chain>


$$$$
00334001.cdx
  Mrv0541 07212217012D          

 42 45  0  0  0  0            999 V2000
   -0.3072    2.1178    0.0000 C   0  0  0  0  0  0  0  0  0  0  0  0
   -0.3072    1.2928    0.0000 C   0  0  0  0  0  0  0  0  0  0  0  0
    0.4775    1.0378    0.0000 S   0  0  0  0  0  0  0  0  0  0  0  0
    0.9624    1.7053    0.0000 C   0  0  0  0  0  0  0  0  0  0  0  0
    0.4775    2.3727    0.0000 N   0  0  0  0  0  0  0  0  0  0  0  0
   -1.0216    0.8803    0.0000 C   0  0  0  0  0  0  0  0  0  0  0  0
   -1.7361    1.2928    0.0000 C   0  0  0  0  0  0  0  0  0  0  0  0
   -2.4506    0.8803    0.0000 C   0  0  0  0  0  0  0  0  0  0  0  0
   -2.4506    0.0553    0.0000 C   0  0  0  0  0  0  0  0  0  0  0  0
   -1.7361   -0.3572    0.0000 C   0  0  0  0  0  0  0  0  0  0  0  0
   -1.0216    0.0553    0.0000 C   0  0  0  0  0  0  0  0  0  0  0  0
   -0.3072   -0.3572    0.0000 S   0  0  0  0  0  0  0  0  0  0  0  0
   -0.3072   -1.1822    0.0000 N   0  0  0  0  0  0  0  0  0  0  0  0
    0.4073    0.0553    0.0000 O   0  0  0  0  0  0  0  0  0  0  0  0
    0.4073   -0.7697    0.0000 O   0  0  0  0  0  0  0  0  0  0  0  0
   -1.0216   -1.5947    0.0000 C   0  0  0  0  0  0  0  0  0  0  0  0
   -1.0216   -2.4197    0.0000 C   0  0  0  0  0  0  0  0  0  0  0  0
   -1.7361   -1.1822    0.0000 C   0  0  0  0  0  0  0  0  0  0  0  0
   -1.7361   -2.0072    0.0000 C   0  0  0  0  0  0  0  0  0  0  0  0
   -3.1650   -0.3572    0.0000 C   0  0  0  0  0  0  0  0  0  0  0  0
   -3.8795    0.0553    0.0000 N   0  0  0  0  0  0  0  0  0  0  0  0
   -3.1650   -1.1822    0.0000 O   0  0  0  0  0  0  0  0  0  0  0  0
   -4.5940   -0.3572    0.0000 C   0  0  0  0  0  0  0  0  0  0  0  0
   -5.3084    0.0553    0.0000 C   0  0  0  0  0  0  0  0  0  0  0  0
   -5.3084    0.8803    0.0000 C   0  0  0  0  0  0  0  0  0  0  0  0
   -6.0229    1.2928    0.0000 C   0  0  0  0  0  0  0  0  0  0  0  0
   -6.7374    0.8803    0.0000 C   0  0  0  0  0  0  0  0  0  0  0  0
   -6.7374    0.0553    0.0000 C   0  0  0  0  0  0  0  0  0  0  0  0
   -6.0229   -0.3572    0.0000 C   0  0  0  0  0  0  0  0  0  0  0  0
    1.7874    1.7053    0.0000 C   0  0  0  0  0  0  0  0  0  0  0  0
    2.1999    0.9908    0.0000 C   0  0  0  0  0  0  0  0  0  0  0  0
    3.0249    0.9908    0.0000 C   0  0  0  0  0  0  0  0  0  0  0  0
    3.4374    1.7053    0.0000 C   0  0  0  0  0  0  0  0  0  0  0  0
    3.0249    2.4197    0.0000 C   0  0  0  0  0  0  0  0  0  0  0  0
    2.1999    2.4197    0.0000 C   0  0  0  0  0  0  0  0  0  0  0  0
    4.2624    1.7053    0.0000 N   0  0  0  0  0  0  0  0  0  0  0  0
    4.6749    0.9908    0.0000 C   0  0  0  0  0  0  0  0  0  0  0  0
    5.4999    0.9908    0.0000 O   0  0  0  0  0  0  0  0  0  0  0  0
    4.2624    0.2763    0.0000 O   0  0  0  0  0  0  0  0  0  0  0  0
    5.9124    1.7053    0.0000 C   0  0  0  0  0  0  0  0  0  0  0  0
    6.7374    1.7053    0.0000 C   0  0  0  0  0  0  0  0  0  0  0  0
    5.4999    2.4197    0.0000 C   0  0  0  0  0  0  0  0  0  0  0  0
  1  2  4  0  0  0  0
  2  3  4  0  0  0  0
  3  4  4  0  0  0  0
  4  5  4  0  0  0  0
  5  1  4  0  0  0  0
  2  6  1  0  0  0  0
  6  7  4  0  0  0  0
  7  8  4  0  0  0  0
  8  9  4  0  0  0  0
  9 10  4  0  0  0  0
 10 11  4  0  0  0  0
 11  6  4  0  0  0  0
 11 12  1  0  0  0  0
 12 13  1  0  0  0  0
 12 14  2  0  0  0  0
 12 15  2  0  0  0  0
 13 16  1  0  0  0  0
 16 17  1  0  0  0  0
 16 18  1  0  0  0  0
 16 19  1  0  0  0  0
  9 20  1  0  0  0  0
 20 21  1  0  0  0  0
 20 22  2  0  0  0  0
 21 23  1  0  0  0  0
 23 24  1  0  0  0  0
 24 25  4  0  0  0  0
 25 26  4  0  0  0  0
 26 27  4  0  0  0  0
 27 28  4  0  0  0  0
 28 29  4  0  0  0  0
 29 24  4  0  0  0  0
  4 30  1  0  0  0  0
 30 31  4  0  0  0  0
 31 32  4  0  0  0  0
 32 33  4  0  0  0  0
 33 34  4  0  0  0  0
 34 35  4  0  0  0  0
 35 30  4  0  0  0  0
 33 36  1  0  0  0  0
 36 37  1  0  0  0  0
 37 38  1  0  0  0  0
 37 39  2  0  0  0  0
 38 40  1  0  0  0  0
 40 41  1  0  0  0  0
 40 42  1  0  0  0  0
M  END
> <From>
www.bindingDB.org

> <BindingDB Reactant_set_id>
1155323

> <Ligand InChI>
InChI=1S/C31H34N4O5S2/c1-20(2)40-30(37)34-24-14-11-22(12-15-24)29-33-19-26(41-29)25-16-13-23(17-27(25)42(38,39)35-31(3,4)5)28(36)32-18-21-9-7-6-8-10-21/h6-17,19-20,35H,18H2,1-5H3,(H,32,36)(H,34,37)

> <Ligand InChI Key>
MYJCZWKCHHVGDO-UHFFFAOYSA-N

> <BindingDB MonomerID>
546473

> <BindingDB Ligand Name>
US11291655, No K1

> <Target Name>
DNA repair protein RAD51 homolog 1

> <Target Source Organism According to Curator or DataSource>
Homo sapiens

> <Ki (nM)>


> <IC50 (nM)>


> <Kd (nM)>


> <EC50 (nM)>
>10000

> <kon (M-1-s-1)>


> <koff (s-1)>


> <pH>


> <Temp C>


> <Curation/DataSource>
US Patent

> <Article DOI>


> <BindingDB Entry DOI>
10.7270/Q2NG4TV0

> <PMID>


> <PubChem AID>
aid1806421

> <Patent Number>
US11291655

> <Authors>
Castro, AC; McComas, CC; Vacca, J

> <Date of publication>
4/5/2022

> <Date in BindingDB>
7/21/2022

> <Institution>
Cyteir Therapeutics, Inc.

> <Link to Ligand in BindingDB>
http://www.bindingdb.org/bind/chemsearch/marvin/MolStructure.jsp?monomerid=546473

> <Link to Ligand-Target Pair in BindingDB>
http://www.bindingdb.org/jsp/dbsearch/PrimarySearch_ki.jsp?energyterm=kJ/mole&tag=pol&polymerid=4676&target=DNA+repair+protein+RAD51+homolog+1&column=ki&startPg=0&Increment=50&submit=Search

> <Link to Ligand-Target Pair in BindingDB>
http://www.bindingdb.org/jsp/dbsearch/PrimarySearch_ki.jsp?energyterm=kJ/mole&tag=r21&monomerid=546473&enzyme=DNA+repair+protein+RAD51+homolog+1&column=ki&startPg=0&Increment=50&submit=Search

> <Ligand HET ID in PDB>


> <PDB ID(s) for Ligand-Target Complex>


> <PubChem CID of Ligand>
137411719

> <PubChem SID of Ligand>
469681169

> <ChEBI ID of Ligand>


> <ChEMBL ID of Ligand>


> <DrugBank ID of Ligand>


> <IUPHAR_GRAC ID of Ligand>


> <KEGG ID of Ligand>


> <ZINC ID of Ligand>


> <Number of Protein Chains in Target (bigger than 1 implies a multichain complex)>
1

> <BindingDB Target Chain Sequence>
MAMQMQLEANADTSVEEESFGPQPISRLEQCGINANDVKKLEEAGFHTVEAVAYAPKKELINIKGISEAKADKILAEAAKLVPMGFTTATEFHQRRSEIIQITTGSKELDKLLQGGIETGSITEMFGEFRTGKTQICHTLAVTCQLPIDRGGGEGKAMYIDTEGTFRPERLLAVAERYGLSGSDVLDNVAYARAFNTDHQTQLLYQASAMMVESRYALLIVDSATALYRTDYSGRGELSARQMHLARFLRMLLRLADEFGVAVVITNQVVAQVDGAAMFAADPKKPIGGNIIAHASTTRLYLRKGRGETRICKIYDSPCLPEAEAMFAINADGVGDAKD

> <PDB ID(s) of Target Chain>
1N0W,5JZC,5NP7,5NWL,8BQ2,8BR2,8BSC

> <UniProt (SwissProt) Recommended Name of Target Chain>
DNA repair protein RAD51 homolog 1

> <UniProt (SwissProt) Entry Name of Target Chain>
RAD51_HUMAN

> <UniProt (SwissProt) Primary ID of Target Chain>
Q06609

> <UniProt (SwissProt) Secondary ID(s) of Target Chain>
B0FXP0 B2R8T6 Q6FHX9 Q6ZNA8 Q9BV60

> <UniProt (SwissProt) Alternative ID(s) of Target Chain>


> <UniProt (TrEMBL) Submitted Name of Target Chain>


> <UniProt (TrEMBL) Entry Name of Target Chain>


> <UniProt (TrEMBL) Primary ID of Target Chain>


> <UniProt (TrEMBL) Secondary ID(s) of Target Chain>


> <UniProt (TrEMBL) Alternative ID(s) of Target Chain>


$$$$
00335001.cdx
  Mrv0541 07212217012D          

 43 46  0  0  0  0            999 V2000
    0.0501    2.0625    0.0000 C   0  0  0  0  0  0  0  0  0  0  0  0
    0.0501    1.2375    0.0000 C   0  0  0  0  0  0  0  0  0  0  0  0
    0.8347    0.9826    0.0000 S   0  0  0  0  0  0  0  0  0  0  0  0
    1.3196    1.6500    0.0000 C   0  0  0  0  0  0  0  0  0  0  0  0
    0.8347    2.3174    0.0000 N   0  0  0  0  0  0  0  0  0  0  0  0
   -0.6644    0.8250    0.0000 C   0  0  0  0  0  0  0  0  0  0  0  0
   -1.3789    1.2375    0.0000 C   0  0  0  0  0  0  0  0  0  0  0  0
   -2.0933    0.8250    0.0000 C   0  0  0  0  0  0  0  0  0  0  0  0
   -2.0933    0.0000    0.0000 C   0  0  0  0  0  0  0  0  0  0  0  0
   -1.3789   -0.4125    0.0000 C   0  0  0  0  0  0  0  0  0  0  0  0
   -0.6644    0.0000    0.0000 C   0  0  0  0  0  0  0  0  0  0  0  0
    0.0501   -0.4125    0.0000 S   0  0  0  0  0  0  0  0  0  0  0  0
    0.0501   -1.2375    0.0000 N   0  0  0  0  0  0  0  0  0  0  0  0
    0.7646    0.0000    0.0000 O   0  0  0  0  0  0  0  0  0  0  0  0
    0.7646   -0.8250    0.0000 O   0  0  0  0  0  0  0  0  0  0  0  0
   -0.6644   -1.6500    0.0000 C   0  0  0  0  0  0  0  0  0  0  0  0
   -0.6644   -2.4750    0.0000 C   0  0  0  0  0  0  0  0  0  0  0  0
   -1.3789   -1.2375    0.0000 C   0  0  0  0  0  0  0  0  0  0  0  0
   -1.3789   -2.0625    0.0000 C   0  0  0  0  0  0  0  0  0  0  0  0
    2.1446    1.6500    0.0000 C   0  0  0  0  0  0  0  0  0  0  0  0
    2.5571    0.9355    0.0000 C   0  0  0  0  0  0  0  0  0  0  0  0
    3.3821    0.9355    0.0000 C   0  0  0  0  0  0  0  0  0  0  0  0
    3.7946    1.6500    0.0000 C   0  0  0  0  0  0  0  0  0  0  0  0
    3.3821    2.3645    0.0000 C   0  0  0  0  0  0  0  0  0  0  0  0
    2.5571    2.3645    0.0000 C   0  0  0  0  0  0  0  0  0  0  0  0
    4.6196    1.6500    0.0000 N   0  0  0  0  0  0  0  0  0  0  0  0
    5.0321    0.9355    0.0000 C   0  0  0  0  0  0  0  0  0  0  0  0
    5.8571    0.9355    0.0000 O   0  0  0  0  0  0  0  0  0  0  0  0
    4.6196    0.2211    0.0000 O   0  0  0  0  0  0  0  0  0  0  0  0
    6.2696    1.6500    0.0000 C   0  0  0  0  0  0  0  0  0  0  0  0
    7.0946    1.6500    0.0000 C   0  0  0  0  0  0  0  0  0  0  0  0
    5.8571    2.3645    0.0000 C   0  0  0  0  0  0  0  0  0  0  0  0
   -2.8078    1.2375    0.0000 N   0  0  0  0  0  0  0  0  0  0  0  0
   -3.5223    0.8250    0.0000 C   0  0  0  0  0  0  0  0  0  0  0  0
   -4.2367    1.2375    0.0000 O   0  0  0  0  0  0  0  0  0  0  0  0
   -3.5223    0.0000    0.0000 O   0  0  0  0  0  0  0  0  0  0  0  0
   -4.9512    0.8250    0.0000 C   0  0  0  0  0  0  0  0  0  0  0  0
   -5.6657    1.2375    0.0000 C   0  0  0  0  0  0  0  0  0  0  0  0
   -5.6657    2.0625    0.0000 C   0  0  0  0  0  0  0  0  0  0  0  0
   -6.3802    2.4750    0.0000 C   0  0  0  0  0  0  0  0  0  0  0  0
   -7.0946    2.0625    0.0000 C   0  0  0  0  0  0  0  0  0  0  0  0
   -7.0946    1.2375    0.0000 C   0  0  0  0  0  0  0  0  0  0  0  0
   -6.3802    0.8250    0.0000 C   0  0  0  0  0  0  0  0  0  0  0  0
  1  2  4  0  0  0  0
  2  3  4  0  0  0  0
  3  4  4  0  0  0  0
  4  5  4  0  0  0  0
  5  1  4  0  0  0  0
  2  6  1  0  0  0  0
  6  7  4  0  0  0  0
  7  8  4  0  0  0  0
  8  9  4  0  0  0  0
  9 10  4  0  0  0  0
 10 11  4  0  0  0  0
 11  6  4  0  0  0  0
 11 12  1  0  0  0  0
 12 13  1  0  0  0  0
 12 14  2  0  0  0  0
 12 15  2  0  0  0  0
 13 16  1  0  0  0  0
 16 17  1  0  0  0  0
 16 18  1  0  0  0  0
 16 19  1  0  0  0  0
  4 20  1  0  0  0  0
 20 21  4  0  0  0  0
 21 22  4  0  0  0  0
 22 23  4  0  0  0  0
 23 24  4  0  0  0  0
 24 25  4  0  0  0  0
 25 20  4  0  0  0  0
 23 26  1  0  0  0  0
 26 27  1  0  0  0  0
 27 28  1  0  0  0  0
 27 29  2  0  0  0  0
 28 30  1  0  0  0  0
 30 31  1  0  0  0  0
 30 32  1  0  0  0  0
  8 33  1  0  0  0  0
 33 34  1  0  0  0  0
 34 35  1  0  0  0  0
 34 36  2  0  0  0  0
 35 37  1  0  0  0  0
 37 38  1  0  0  0  0
 38 39  4  0  0  0  0
 39 40  4  0  0  0  0
 40 41  4  0  0  0  0
 41 42  4  0  0  0  0
 42 43  4  0  0  0  0
 43 38  4  0  0  0  0
M  END
> <From>
www.bindingDB.org

> <BindingDB Reactant_set_id>
1155324

> <Ligand InChI>
InChI=1S/C31H34N4O6S2/c1-20(2)41-30(37)33-23-13-11-22(12-14-23)28-32-18-26(42-28)25-17-24(15-16-27(25)43(38,39)35-31(3,4)5)34-29(36)40-19-21-9-7-6-8-10-21/h6-18,20,35H,19H2,1-5H3,(H,33,37)(H,34,36)

> <Ligand InChI Key>
VVGSGPFPAPPKOQ-UHFFFAOYSA-N

> <BindingDB MonomerID>
546474

> <BindingDB Ligand Name>
US11291655, No K2

> <Target Name>
DNA repair protein RAD51 homolog 1

> <Target Source Organism According to Curator or DataSource>
Homo sapiens

> <Ki (nM)>


> <IC50 (nM)>


> <Kd (nM)>


> <EC50 (nM)>
>10000

> <kon (M-1-s-1)>


> <koff (s-1)>


> <pH>


> <Temp C>


> <Curation/DataSource>
US Patent

> <Article DOI>


> <BindingDB Entry DOI>
10.7270/Q2NG4TV0

> <PMID>


> <PubChem AID>
aid1806421

> <Patent Number>
US11291655

> <Authors>
Castro, AC; McComas, CC; Vacca, J

> <Date of publication>
4/5/2022

> <Date in BindingDB>
7/21/2022

> <Institution>
Cyteir Therapeutics, Inc.

> <Link to Ligand in BindingDB>
http://www.bindingdb.org/bind/chemsearch/marvin/MolStructure.jsp?monomerid=546474

> <Link to Ligand-Target Pair in BindingDB>
http://www.bindingdb.org/jsp/dbsearch/PrimarySearch_ki.jsp?energyterm=kJ/mole&tag=pol&polymerid=4676&target=DNA+repair+protein+RAD51+homolog+1&column=ki&startPg=0&Increment=50&submit=Search

> <Link to Ligand-Target Pair in BindingDB>
http://www.bindingdb.org/jsp/dbsearch/PrimarySearch_ki.jsp?energyterm=kJ/mole&tag=r21&monomerid=546474&enzyme=DNA+repair+protein+RAD51+homolog+1&column=ki&startPg=0&Increment=50&submit=Search

> <Ligand HET ID in PDB>


> <PDB ID(s) for Ligand-Target Complex>


> <PubChem CID of Ligand>
137411747

> <PubChem SID of Ligand>
469681170

> <ChEBI ID of Ligand>


> <ChEMBL ID of Ligand>


> <DrugBank ID of Ligand>


> <IUPHAR_GRAC ID of Ligand>


> <KEGG ID of Ligand>


> <ZINC ID of Ligand>


> <Number of Protein Chains in Target (bigger than 1 implies a multichain complex)>
1

> <BindingDB Target Chain Sequence>
MAMQMQLEANADTSVEEESFGPQPISRLEQCGINANDVKKLEEAGFHTVEAVAYAPKKELINIKGISEAKADKILAEAAKLVPMGFTTATEFHQRRSEIIQITTGSKELDKLLQGGIETGSITEMFGEFRTGKTQICHTLAVTCQLPIDRGGGEGKAMYIDTEGTFRPERLLAVAERYGLSGSDVLDNVAYARAFNTDHQTQLLYQASAMMVESRYALLIVDSATALYRTDYSGRGELSARQMHLARFLRMLLRLADEFGVAVVITNQVVAQVDGAAMFAADPKKPIGGNIIAHASTTRLYLRKGRGETRICKIYDSPCLPEAEAMFAINADGVGDAKD

> <PDB ID(s) of Target Chain>
1N0W,5JZC,5NP7,5NWL,8BQ2,8BR2,8BSC

> <UniProt (SwissProt) Recommended Name of Target Chain>
DNA repair protein RAD51 homolog 1

> <UniProt (SwissProt) Entry Name of Target Chain>
RAD51_HUMAN

> <UniProt (SwissProt) Primary ID of Target Chain>
Q06609

> <UniProt (SwissProt) Secondary ID(s) of Target Chain>
B0FXP0 B2R8T6 Q6FHX9 Q6ZNA8 Q9BV60

> <UniProt (SwissProt) Alternative ID(s) of Target Chain>


> <UniProt (TrEMBL) Submitted Name of Target Chain>


> <UniProt (TrEMBL) Entry Name of Target Chain>


> <UniProt (TrEMBL) Primary ID of Target Chain>


> <UniProt (TrEMBL) Secondary ID(s) of Target Chain>


> <UniProt (TrEMBL) Alternative ID(s) of Target Chain>


$$$$
00336001.cdx
  Mrv0541 07212217012D          

 43 46  0  0  0  0            999 V2000
    0.0501    1.7053    0.0000 C   0  0  0  0  0  0  0  0  0  0  0  0
    0.0501    0.8803    0.0000 C   0  0  0  0  0  0  0  0  0  0  0  0
    0.8347    0.6253    0.0000 S   0  0  0  0  0  0  0  0  0  0  0  0
    1.3196    1.2928    0.0000 C   0  0  0  0  0  0  0  0  0  0  0  0
    0.8347    1.9602    0.0000 N   0  0  0  0  0  0  0  0  0  0  0  0
   -0.6644    0.4678    0.0000 C   0  0  0  0  0  0  0  0  0  0  0  0
   -1.3789    0.8803    0.0000 C   0  0  0  0  0  0  0  0  0  0  0  0
   -2.0933    0.4678    0.0000 C   0  0  0  0  0  0  0  0  0  0  0  0
   -2.0933   -0.3572    0.0000 C   0  0  0  0  0  0  0  0  0  0  0  0
   -1.3789   -0.7697    0.0000 C   0  0  0  0  0  0  0  0  0  0  0  0
   -0.6644   -0.3572    0.0000 C   0  0  0  0  0  0  0  0  0  0  0  0
    0.0501   -0.7697    0.0000 S   0  0  0  0  0  0  0  0  0  0  0  0
   -2.8078   -0.7697    0.0000 N   0  0  0  0  0  0  0  0  0  0  0  0
   -3.5223   -0.3572    0.0000 C   0  0  0  0  0  0  0  0  0  0  0  0
   -4.2367   -0.7697    0.0000 N   0  0  0  0  0  0  0  0  0  0  0  0
   -4.9512   -0.3572    0.0000 C   0  0  0  0  0  0  0  0  0  0  0  0
   -5.6657   -0.7697    0.0000 C   0  0  0  0  0  0  0  0  0  0  0  0
    2.1446    1.2928    0.0000 C   0  0  0  0  0  0  0  0  0  0  0  0
    2.5571    0.5783    0.0000 C   0  0  0  0  0  0  0  0  0  0  0  0
    3.3821    0.5783    0.0000 C   0  0  0  0  0  0  0  0  0  0  0  0
    3.7946    1.2928    0.0000 C   0  0  0  0  0  0  0  0  0  0  0  0
    3.3821    2.0072    0.0000 C   0  0  0  0  0  0  0  0  0  0  0  0
    2.5571    2.0072    0.0000 C   0  0  0  0  0  0  0  0  0  0  0  0
    4.6196    1.2928    0.0000 N   0  0  0  0  0  0  0  0  0  0  0  0
    5.0321    0.5783    0.0000 C   0  0  0  0  0  0  0  0  0  0  0  0
    5.8571    0.5783    0.0000 N   0  0  0  0  0  0  0  0  0  0  0  0
    4.6196   -0.1362    0.0000 S   0  0  0  0  0  0  0  0  0  0  0  0
    6.2696    1.2928    0.0000 C   0  0  0  0  0  0  0  0  0  0  0  0
    7.0946    1.2928    0.0000 C   0  0  0  0  0  0  0  0  0  0  0  0
    5.8571    2.0072    0.0000 C   0  0  0  0  0  0  0  0  0  0  0  0
   -3.5223    0.4678    0.0000 O   0  0  0  0  0  0  0  0  0  0  0  0
   -6.3802   -0.3572    0.0000 C   0  0  0  0  0  0  0  0  0  0  0  0
   -7.0946   -0.7697    0.0000 C   0  0  0  0  0  0  0  0  0  0  0  0
   -7.0946   -1.5947    0.0000 C   0  0  0  0  0  0  0  0  0  0  0  0
   -6.3802   -2.0072    0.0000 C   0  0  0  0  0  0  0  0  0  0  0  0
   -5.6657   -1.5947    0.0000 C   0  0  0  0  0  0  0  0  0  0  0  0
    0.7646   -1.1822    0.0000 N   0  0  0  0  0  0  0  0  0  0  0  0
    0.4626   -0.0553    0.0000 O   0  0  0  0  0  0  0  0  0  0  0  0
   -0.3624   -1.4842    0.0000 O   0  0  0  0  0  0  0  0  0  0  0  0
    1.4790   -0.7697    0.0000 C   0  0  0  0  0  0  0  0  0  0  0  0
    2.1935   -1.1822    0.0000 C   0  0  0  0  0  0  0  0  0  0  0  0
    1.4790    0.0553    0.0000 C   0  0  0  0  0  0  0  0  0  0  0  0
    2.1935   -0.3572    0.0000 C   0  0  0  0  0  0  0  0  0  0  0  0
  1  2  4  0  0  0  0
  2  3  4  0  0  0  0
  3  4  4  0  0  0  0
  4  5  4  0  0  0  0
  5  1  4  0  0  0  0
  2  6  1  0  0  0  0
  6  7  4  0  0  0  0
  7  8  4  0  0  0  0
  8  9  4  0  0  0  0
  9 10  4  0  0  0  0
 10 11  4  0  0  0  0
 11  6  4  0  0  0  0
 11 12  1  0  0  0  0
  9 13  1  0  0  0  0
 13 14  1  0  0  0  0
 14 15  1  0  0  0  0
 15 16  1  0  0  0  0
 17 16  1  0  0  0  0
  4 18  1  0  0  0  0
 18 19  4  0  0  0  0
 19 20  4  0  0  0  0
 20 21  4  0  0  0  0
 21 22  4  0  0  0  0
 22 23  4  0  0  0  0
 23 18  4  0  0  0  0
 21 24  1  0  0  0  0
 24 25  1  0  0  0  0
 25 26  1  0  0  0  0
 25 27  2  0  0  0  0
 26 28  1  0  0  0  0
 28 29  1  0  0  0  0
 28 30  1  0  0  0  0
 14 31  2  0  0  0  0
 17 32  4  0  0  0  0
 32 33  4  0  0  0  0
 33 34  4  0  0  0  0
 34 35  4  0  0  0  0
 35 36  4  0  0  0  0
 36 17  4  0  0  0  0
 12 37  1  0  0  0  0
 12 38  2  0  0  0  0
 12 39  2  0  0  0  0
 37 40  1  0  0  0  0
 40 41  1  0  0  0  0
 40 42  1  0  0  0  0
 40 43  1  0  0  0  0
M  END
> <From>
www.bindingDB.org

> <BindingDB Reactant_set_id>
1155325

> <Ligand InChI>
InChI=1S/C31H36N6O3S3/c1-20(2)34-30(41)36-23-13-11-22(12-14-23)28-32-19-26(42-28)25-16-15-24(17-27(25)43(39,40)37-31(3,4)5)35-29(38)33-18-21-9-7-6-8-10-21/h6-17,19-20,37H,18H2,1-5H3,(H2,33,35,38)(H2,34,36,41)

> <Ligand InChI Key>
RSWJNNKACMAUDW-UHFFFAOYSA-N

> <BindingDB MonomerID>
546475

> <BindingDB Ligand Name>
US11291655, No L10

> <Target Name>
DNA repair protein RAD51 homolog 1

> <Target Source Organism According to Curator or DataSource>
Homo sapiens

> <Ki (nM)>


> <IC50 (nM)>


> <Kd (nM)>


> <EC50 (nM)>
<5000

> <kon (M-1-s-1)>


> <koff (s-1)>


> <pH>


> <Temp C>


> <Curation/DataSource>
US Patent

> <Article DOI>


> <BindingDB Entry DOI>
10.7270/Q2NG4TV0

> <PMID>


> <PubChem AID>
aid1806421

> <Patent Number>
US11291655

> <Authors>
Castro, AC; McComas, CC; Vacca, J

> <Date of publication>
4/5/2022

> <Date in BindingDB>
7/21/2022

> <Institution>
Cyteir Therapeutics, Inc.

> <Link to Ligand in BindingDB>
http://www.bindingdb.org/bind/chemsearch/marvin/MolStructure.jsp?monomerid=546475

> <Link to Ligand-Target Pair in BindingDB>
http://www.bindingdb.org/jsp/dbsearch/PrimarySearch_ki.jsp?energyterm=kJ/mole&tag=pol&polymerid=4676&target=DNA+repair+protein+RAD51+homolog+1&column=ki&startPg=0&Increment=50&submit=Search

> <Link to Ligand-Target Pair in BindingDB>
http://www.bindingdb.org/jsp/dbsearch/PrimarySearch_ki.jsp?energyterm=kJ/mole&tag=r21&monomerid=546475&enzyme=DNA+repair+protein+RAD51+homolog+1&column=ki&startPg=0&Increment=50&submit=Search

> <Ligand HET ID in PDB>


> <PDB ID(s) for Ligand-Target Complex>


> <PubChem CID of Ligand>
137411867

> <PubChem SID of Ligand>
469681171

> <ChEBI ID of Ligand>


> <ChEMBL ID of Ligand>


> <DrugBank ID of Ligand>


> <IUPHAR_GRAC ID of Ligand>


> <KEGG ID of Ligand>


> <ZINC ID of Ligand>


> <Number of Protein Chains in Target (bigger than 1 implies a multichain complex)>
1

> <BindingDB Target Chain Sequence>
MAMQMQLEANADTSVEEESFGPQPISRLEQCGINANDVKKLEEAGFHTVEAVAYAPKKELINIKGISEAKADKILAEAAKLVPMGFTTATEFHQRRSEIIQITTGSKELDKLLQGGIETGSITEMFGEFRTGKTQICHTLAVTCQLPIDRGGGEGKAMYIDTEGTFRPERLLAVAERYGLSGSDVLDNVAYARAFNTDHQTQLLYQASAMMVESRYALLIVDSATALYRTDYSGRGELSARQMHLARFLRMLLRLADEFGVAVVITNQVVAQVDGAAMFAADPKKPIGGNIIAHASTTRLYLRKGRGETRICKIYDSPCLPEAEAMFAINADGVGDAKD

> <PDB ID(s) of Target Chain>
1N0W,5JZC,5NP7,5NWL,8BQ2,8BR2,8BSC

> <UniProt (SwissProt) Recommended Name of Target Chain>
DNA repair protein RAD51 homolog 1

> <UniProt (SwissProt) Entry Name of Target Chain>
RAD51_HUMAN

> <UniProt (SwissProt) Primary ID of Target Chain>
Q06609

> <UniProt (SwissProt) Secondary ID(s) of Target Chain>
B0FXP0 B2R8T6 Q6FHX9 Q6ZNA8 Q9BV60

> <UniProt (SwissProt) Alternative ID(s) of Target Chain>


> <UniProt (TrEMBL) Submitted Name of Target Chain>


> <UniProt (TrEMBL) Entry Name of Target Chain>


> <UniProt (TrEMBL) Primary ID of Target Chain>


> <UniProt (TrEMBL) Secondary ID(s) of Target Chain>


> <UniProt (TrEMBL) Alternative ID(s) of Target Chain>


$$$$
00337001.cdx
  Mrv0541 07212217012D          

 38 40  0  0  0  0            999 V2000
    0.5974    2.0929    0.0000 N   0  0  0  0  0  0  0  0  0  0  0  0
   -0.2276    2.0929    0.0000 C   0  0  0  0  0  0  0  0  0  0  0  0
   -0.4825    1.3082    0.0000 C   0  0  0  0  0  0  0  0  0  0  0  0
    0.1849    0.8233    0.0000 S   0  0  0  0  0  0  0  0  0  0  0  0
    0.8524    1.3082    0.0000 C   0  0  0  0  0  0  0  0  0  0  0  0
   -1.2794    1.0947    0.0000 C   0  0  0  0  0  0  0  0  0  0  0  0
   -1.8628    1.6781    0.0000 C   0  0  0  0  0  0  0  0  0  0  0  0
   -2.6597    1.4645    0.0000 C   0  0  0  0  0  0  0  0  0  0  0  0
   -2.8732    0.6677    0.0000 C   0  0  0  0  0  0  0  0  0  0  0  0
   -2.2898    0.0843    0.0000 C   0  0  0  0  0  0  0  0  0  0  0  0
   -1.4929    0.2978    0.0000 C   0  0  0  0  0  0  0  0  0  0  0  0
   -0.9096   -0.2855    0.0000 S   0  0  0  0  0  0  0  0  0  0  0  0
   -1.1231   -1.0824    0.0000 N   0  0  0  0  0  0  0  0  0  0  0  0
   -0.1127   -0.4991    0.0000 O   0  0  0  0  0  0  0  0  0  0  0  0
   -0.3262    0.2978    0.0000 O   0  0  0  0  0  0  0  0  0  0  0  0
   -1.9200   -1.2960    0.0000 C   0  0  0  0  0  0  0  0  0  0  0  0
   -2.1335   -2.0929    0.0000 C   0  0  0  0  0  0  0  0  0  0  0  0
   -2.5033   -0.7126    0.0000 C   0  0  0  0  0  0  0  0  0  0  0  0
   -2.7169   -1.5095    0.0000 C   0  0  0  0  0  0  0  0  0  0  0  0
    1.6492    1.0947    0.0000 C   0  0  0  0  0  0  0  0  0  0  0  0
    1.8628    0.2978    0.0000 C   0  0  0  0  0  0  0  0  0  0  0  0
    2.6597    0.0843    0.0000 C   0  0  0  0  0  0  0  0  0  0  0  0
    3.2430    0.6677    0.0000 C   0  0  0  0  0  0  0  0  0  0  0  0
    3.0295    1.4645    0.0000 C   0  0  0  0  0  0  0  0  0  0  0  0
    2.2326    1.6781    0.0000 C   0  0  0  0  0  0  0  0  0  0  0  0
    4.0399    0.4541    0.0000 N   0  0  0  0  0  0  0  0  0  0  0  0
    4.2534   -0.3428    0.0000 C   0  0  0  0  0  0  0  0  0  0  0  0
    5.0503   -0.5563    0.0000 N   0  0  0  0  0  0  0  0  0  0  0  0
    3.6701   -0.9261    0.0000 S   0  0  0  0  0  0  0  0  0  0  0  0
    5.6337    0.0271    0.0000 C   0  0  0  0  0  0  0  0  0  0  0  0
    6.4306   -0.1864    0.0000 C   0  0  0  0  0  0  0  0  0  0  0  0
    5.4202    0.8240    0.0000 C   0  0  0  0  0  0  0  0  0  0  0  0
   -3.6701    0.4541    0.0000 N   0  0  0  0  0  0  0  0  0  0  0  0
   -4.2534    1.0375    0.0000 C   0  0  0  0  0  0  0  0  0  0  0  0
   -5.0503    0.8240    0.0000 O   0  0  0  0  0  0  0  0  0  0  0  0
   -4.0399    1.8344    0.0000 O   0  0  0  0  0  0  0  0  0  0  0  0
   -5.6337    1.4073    0.0000 C   0  0  0  0  0  0  0  0  0  0  0  0
   -6.4306    1.1938    0.0000 C   0  0  0  0  0  0  0  0  0  0  0  0
  1  2  4  0  0  0  0
  2  3  4  0  0  0  0
  3  4  4  0  0  0  0
  4  5  4  0  0  0  0
  5  1  4  0  0  0  0
  3  6  1  0  0  0  0
  6  7  4  0  0  0  0
  7  8  4  0  0  0  0
  8  9  4  0  0  0  0
  9 10  4  0  0  0  0
 10 11  4  0  0  0  0
 11  6  4  0  0  0  0
  9 33  1  0  0  0  0
 11 12  1  0  0  0  0
 12 13  1  0  0  0  0
 12 14  2  0  0  0  0
 15 12  2  0  0  0  0
 13 16  1  0  0  0  0
 16 17  1  0  0  0  0
 16 18  1  0  0  0  0
 16 19  1  0  0  0  0
  5 20  1  0  0  0  0
 20 21  4  0  0  0  0
 21 22  4  0  0  0  0
 22 23  4  0  0  0  0
 23 24  4  0  0  0  0
 24 25  4  0  0  0  0
 25 20  4  0  0  0  0
 23 26  1  0  0  0  0
 26 27  1  0  0  0  0
 27 28  1  0  0  0  0
 27 29  2  0  0  0  0
 28 30  1  0  0  0  0
 30 31  1  0  0  0  0
 30 32  1  0  0  0  0
 33 34  1  0  0  0  0
 34 35  1  0  0  0  0
 34 36  2  0  0  0  0
 35 37  1  0  0  0  0
 37 38  1  0  0  0  0
M  END
> <From>
www.bindingDB.org

> <BindingDB Reactant_set_id>
1155326

> <Ligand InChI>
InChI=1S/C26H33N5O4S3/c1-7-35-25(32)30-19-12-13-20(22(14-19)38(33,34)31-26(4,5)6)21-15-27-23(37-21)17-8-10-18(11-9-17)29-24(36)28-16(2)3/h8-16,31H,7H2,1-6H3,(H,30,32)(H2,28,29,36)

> <Ligand InChI Key>
IEPODEWTHYSFPT-UHFFFAOYSA-N

> <BindingDB MonomerID>
546476

> <BindingDB Ligand Name>
US11291655, No L5

> <Target Name>
DNA repair protein RAD51 homolog 1

> <Target Source Organism According to Curator or DataSource>
Homo sapiens

> <Ki (nM)>


> <IC50 (nM)>


> <Kd (nM)>


> <EC50 (nM)>
<5000

> <kon (M-1-s-1)>


> <koff (s-1)>


> <pH>


> <Temp C>


> <Curation/DataSource>
US Patent

> <Article DOI>


> <BindingDB Entry DOI>
10.7270/Q2NG4TV0

> <PMID>


> <PubChem AID>
aid1806421

> <Patent Number>
US11291655

> <Authors>
Castro, AC; McComas, CC; Vacca, J

> <Date of publication>
4/5/2022

> <Date in BindingDB>
7/21/2022

> <Institution>
Cyteir Therapeutics, Inc.

> <Link to Ligand in BindingDB>
http://www.bindingdb.org/bind/chemsearch/marvin/MolStructure.jsp?monomerid=546476

> <Link to Ligand-Target Pair in BindingDB>
http://www.bindingdb.org/jsp/dbsearch/PrimarySearch_ki.jsp?energyterm=kJ/mole&tag=pol&polymerid=4676&target=DNA+repair+protein+RAD51+homolog+1&column=ki&startPg=0&Increment=50&submit=Search

> <Link to Ligand-Target Pair in BindingDB>
http://www.bindingdb.org/jsp/dbsearch/PrimarySearch_ki.jsp?energyterm=kJ/mole&tag=r21&monomerid=546476&enzyme=DNA+repair+protein+RAD51+homolog+1&column=ki&startPg=0&Increment=50&submit=Search

> <Ligand HET ID in PDB>


> <PDB ID(s) for Ligand-Target Complex>


> <PubChem CID of Ligand>
137411908

> <PubChem SID of Ligand>
469681172

> <ChEBI ID of Ligand>


> <ChEMBL ID of Ligand>


> <DrugBank ID of Ligand>


> <IUPHAR_GRAC ID of Ligand>


> <KEGG ID of Ligand>


> <ZINC ID of Ligand>


> <Number of Protein Chains in Target (bigger than 1 implies a multichain complex)>
1

> <BindingDB Target Chain Sequence>
MAMQMQLEANADTSVEEESFGPQPISRLEQCGINANDVKKLEEAGFHTVEAVAYAPKKELINIKGISEAKADKILAEAAKLVPMGFTTATEFHQRRSEIIQITTGSKELDKLLQGGIETGSITEMFGEFRTGKTQICHTLAVTCQLPIDRGGGEGKAMYIDTEGTFRPERLLAVAERYGLSGSDVLDNVAYARAFNTDHQTQLLYQASAMMVESRYALLIVDSATALYRTDYSGRGELSARQMHLARFLRMLLRLADEFGVAVVITNQVVAQVDGAAMFAADPKKPIGGNIIAHASTTRLYLRKGRGETRICKIYDSPCLPEAEAMFAINADGVGDAKD

> <PDB ID(s) of Target Chain>
1N0W,5JZC,5NP7,5NWL,8BQ2,8BR2,8BSC

> <UniProt (SwissProt) Recommended Name of Target Chain>
DNA repair protein RAD51 homolog 1

> <UniProt (SwissProt) Entry Name of Target Chain>
RAD51_HUMAN

> <UniProt (SwissProt) Primary ID of Target Chain>
Q06609

> <UniProt (SwissProt) Secondary ID(s) of Target Chain>
B0FXP0 B2R8T6 Q6FHX9 Q6ZNA8 Q9BV60

> <UniProt (SwissProt) Alternative ID(s) of Target Chain>


> <UniProt (TrEMBL) Submitted Name of Target Chain>


> <UniProt (TrEMBL) Entry Name of Target Chain>


> <UniProt (TrEMBL) Primary ID of Target Chain>


> <UniProt (TrEMBL) Secondary ID(s) of Target Chain>


> <UniProt (TrEMBL) Alternative ID(s) of Target Chain>


$$$$
